
     RDKit          3D

 29 32  0  0  0  0  0  0  0  0999 V2000
  -31.6909    1.4928   35.9383 N   0  0  0  0  0  0  0  0  0  0  0  0
  -33.0492    1.5900   35.9196 C   0  0  0  0  0  0  0  0  0  0  0  0
  -33.6893    1.7539   34.8897 O   0  0  0  0  0  0  0  0  0  0  0  0
  -33.7299    1.4015   37.2157 C   0  0  0  0  0  0  0  0  0  0  0  0
  -34.3439    0.1390   37.3511 C   0  0  0  0  0  0  0  0  0  0  0  0
  -34.9913   -0.2019   38.5301 C   0  0  0  0  0  0  0  0  0  0  0  0
  -35.0265    0.7238   39.5570 C   0  0  0  0  0  0  0  0  0  0  0  0
  -35.6545    0.4138   40.6990 F   0  0  0  0  0  0  0  0  0  0  0  0
  -34.4324    1.9822   39.4263 C   0  0  0  0  0  0  0  0  0  0  0  0
  -33.7611    2.3763   38.2498 C   0  0  0  0  0  0  0  0  0  0  0  0
  -33.1890    3.6668   38.1236 N   0  0  0  0  0  0  0  0  0  0  0  0
  -33.7009    4.4168   36.9480 C   0  0  0  0  0  0  0  0  0  0  0  0
  -33.5025    5.9254   37.0691 C   0  0  0  0  0  0  0  0  0  0  0  0
  -34.1146    6.4870   38.3474 C   0  0  0  0  0  0  0  0  0  0  0  0
  -34.0196    5.5156   39.5250 C   0  0  0  0  0  0  0  0  0  0  0  0
  -32.9215    4.4636   39.3330 C   0  0  0  0  0  0  0  0  0  0  0  0
  -31.6688    5.1514   39.2322 O   0  0  0  0  0  0  0  0  0  0  0  0
  -30.5397    4.2841   39.3497 C   0  0  0  0  0  0  0  0  0  0  0  0
  -29.9352    3.9816   37.9754 C   0  0  0  0  0  0  0  0  0  0  0  0
  -28.7429    3.1442   38.0465 N   0  0  0  0  0  0  0  0  0  0  0  0
  -28.8940    1.8438   38.5280 C   0  0  0  0  0  0  0  0  0  0  0  0
  -30.0575    1.1584   38.3517 N   0  0  0  0  0  0  0  0  0  0  0  0
  -30.1532   -0.1000   38.8457 C   0  0  0  0  0  0  0  0  0  0  0  0
  -29.2244   -0.8102   39.5153 N   0  0  0  0  0  0  0  0  0  0  0  0
  -28.1013   -0.0947   39.6594 C   0  0  0  0  0  0  0  0  0  0  0  0
  -26.9524   -0.4853   40.2831 N   0  0  0  0  0  0  0  0  0  0  0  0
  -26.0695    0.5584   40.2128 C   0  0  0  0  0  0  0  0  0  0  0  0
  -26.5816    1.5944   39.5814 N   0  0  0  0  0  0  0  0  0  0  0  0
  -27.8527    1.1922   39.2179 C   0  0  0  0  0  0  0  0  0  0  0  0
  1  2  1  0
  2  3  2  0
  2  4  1  0
  4  5  2  0
  5  6  1  0
  6  7  2  0
  7  8  1  0
  7  9  1  0
  9 10  2  0
 10 11  1  0
 11 12  1  0
 12 13  1  0
 13 14  1  0
 14 15  1  0
 15 16  1  0
 16 17  1  0
 17 18  1  0
 18 19  1  0
 19 20  1  0
 20 21  1  0
 21 22  2  0
 22 23  1  0
 23 24  2  0
 24 25  1  0
 25 26  1  0
 26 27  1  0
 27 28  2  0
 28 29  1  0
 10  4  1  0
 16 11  1  0
 29 21  1  0
 29 25  2  0
M  END
$$$$
