
     RDKit          3D

 19 20  0  0  0  0  0  0  0  0999 V2000
  102.0855    8.2132  -48.3407 N   0  0  0  0  0  0  0  0  0  0  0  0
  102.5926    7.6955  -49.6062 C   0  0  0  0  0  0  0  0  0  0  0  0
  102.6226    8.7745  -50.6784 C   0  0  0  0  0  0  0  0  0  0  0  0
  101.2305    9.1549  -51.1386 C   0  0  0  0  0  0  0  0  0  0  0  0
  100.4738    8.3347  -51.6623 O   0  0  0  0  0  0  0  0  0  0  0  0
  100.8019   10.5819  -50.9488 C   0  0  0  0  0  0  0  0  0  0  0  0
  100.3662   10.8890  -49.5430 C   0  0  0  0  0  0  0  0  0  0  0  0
  101.1596   11.3651  -48.7281 O   0  0  0  0  0  0  0  0  0  0  0  0
   98.9359   10.5731  -49.1663 C   0  0  0  0  0  0  0  0  0  0  0  0
   98.8439    9.2673  -48.3913 C   0  0  0  0  0  0  0  0  0  0  0  0
   97.4236    8.8808  -48.1265 C   0  0  0  0  0  0  0  0  0  0  0  0
   96.6770    9.2007  -47.0098 C   0  0  0  0  0  0  0  0  0  0  0  0
   95.4267    8.6645  -47.1614 N   0  0  0  0  0  0  0  0  0  0  0  0
   95.3350    7.9994  -48.3617 C   0  0  0  0  0  0  0  0  0  0  0  0
   94.2581    7.3104  -48.9326 C   0  0  0  0  0  0  0  0  0  0  0  0
   94.4572    6.7201  -50.1842 C   0  0  0  0  0  0  0  0  0  0  0  0
   95.6844    6.8162  -50.8358 C   0  0  0  0  0  0  0  0  0  0  0  0
   96.7506    7.5090  -50.2509 C   0  0  0  0  0  0  0  0  0  0  0  0
   96.5755    8.1140  -48.9891 C   0  0  0  0  0  0  0  0  0  0  0  0
  1  2  1  0
  2  3  1  0
  3  4  1  0
  4  5  2  0
  4  6  1  0
  6  7  1  0
  7  8  2  0
  7  9  1  0
  9 10  1  0
 10 11  1  0
 11 12  2  0
 12 13  1  0
 13 14  1  0
 14 15  2  0
 15 16  1  0
 16 17  2  0
 17 18  1  0
 18 19  2  0
 19 11  1  0
 19 14  1  0
M  END
$$$$
