
     RDKit          3D

 16 17  0  0  0  0  0  0  0  0999 V2000
  -45.4201   -9.4455   38.6989 N   0  0  0  0  0  0  0  0  0  0  0  0
  -44.8585  -10.5364   39.4841 C   0  0  0  0  0  0  0  0  0  0  0  0
  -45.9549  -11.2240   40.2945 C   0  0  0  0  0  0  0  0  0  0  0  0
  -45.3724  -12.3061   41.1946 C   0  0  0  0  0  0  0  0  0  0  0  0
  -46.4399  -13.1947   41.8028 C   0  0  0  0  0  0  0  0  0  0  0  0
  -46.4886  -14.3943   41.5157 O   0  0  0  0  0  0  0  0  0  0  0  0
  -47.4156  -12.5704   42.7835 C   0  0  0  0  0  0  0  0  0  0  0  0
  -48.7214  -12.2270   42.1455 C   0  0  0  0  0  0  0  0  0  0  0  0
  -49.5883  -13.1129   41.5334 C   0  0  0  0  0  0  0  0  0  0  0  0
  -50.6732  -12.4165   41.0788 N   0  0  0  0  0  0  0  0  0  0  0  0
  -50.5457  -11.0838   41.3901 C   0  0  0  0  0  0  0  0  0  0  0  0
  -51.4079  -10.0124   41.1273 C   0  0  0  0  0  0  0  0  0  0  0  0
  -51.0200   -8.7444   41.5681 C   0  0  0  0  0  0  0  0  0  0  0  0
  -49.8183   -8.5589   42.2458 C   0  0  0  0  0  0  0  0  0  0  0  0
  -48.9686   -9.6417   42.5014 C   0  0  0  0  0  0  0  0  0  0  0  0
  -49.3332  -10.9328   42.0648 C   0  0  0  0  0  0  0  0  0  0  0  0
  1  2  1  0
  2  3  1  0
  3  4  1  0
  4  5  1  0
  5  6  2  0
  5  7  1  0
  7  8  1  0
  8  9  2  0
  9 10  1  0
 10 11  1  0
 11 12  2  0
 12 13  1  0
 13 14  2  0
 14 15  1  0
 15 16  2  0
 16  8  1  0
 16 11  1  0
M  END
$$$$
