
     RDKit          3D

 27 30  0  0  0  0  0  0  0  0999 V2000
   25.0548    5.2451   -3.9300 N   0  0  0  0  0  0  0  0  0  0  0  0
   24.3408    6.4283   -4.4048 C   0  0  0  0  0  0  0  0  0  0  0  0
   23.5622    7.0874   -3.2932 C   0  0  0  0  0  0  0  0  0  0  0  0
   24.2520    7.8544   -2.3396 C   0  0  0  0  0  0  0  0  0  0  0  0
   23.5442    8.4530   -1.3100 C   0  0  0  0  0  0  0  0  0  0  0  0
   22.2116    8.3403   -1.1543 N   0  0  0  0  0  0  0  0  0  0  0  0
   21.5680    7.5844   -2.0737 C   0  0  0  0  0  0  0  0  0  0  0  0
   22.1678    6.9521   -3.1728 C   0  0  0  0  0  0  0  0  0  0  0  0
   21.4410    6.1930   -4.1176 N   0  0  0  0  0  0  0  0  0  0  0  0
   21.1110    4.8670   -3.5425 C   0  0  0  0  0  0  0  0  0  0  0  0
   20.3465    3.9993   -4.5321 C   0  0  0  0  0  0  0  0  0  0  0  0
   20.4950    2.7773   -4.5845 O   0  0  0  0  0  0  0  0  0  0  0  0
   19.2600    4.6828   -5.3264 C   0  0  0  0  0  0  0  0  0  0  0  0
   19.7717    6.0012   -5.8729 C   0  0  0  0  0  0  0  0  0  0  0  0
   20.3160    6.8975   -4.7536 C   0  0  0  0  0  0  0  0  0  0  0  0
   20.7904    8.0775   -5.3999 O   0  0  0  0  0  0  0  0  0  0  0  0
   20.2204    9.2748   -4.9050 C   0  0  0  0  0  0  0  0  0  0  0  0
   18.9136    9.4848   -5.5012 N   0  0  0  0  0  0  0  0  0  0  0  0
   17.8404    9.0893   -4.7869 C   0  0  0  0  0  0  0  0  0  0  0  0
   17.0696    8.0580   -5.0213 N   0  0  0  0  0  0  0  0  0  0  0  0
   16.1388    8.0654   -4.0100 C   0  0  0  0  0  0  0  0  0  0  0  0
   15.0782    7.1831   -3.7603 C   0  0  0  0  0  0  0  0  0  0  0  0
   14.2665    7.4098   -2.6414 C   0  0  0  0  0  0  0  0  0  0  0  0
   14.5056    8.4923   -1.7903 C   0  0  0  0  0  0  0  0  0  0  0  0
   15.5580    9.3853   -2.0245 C   0  0  0  0  0  0  0  0  0  0  0  0
   16.3516    9.1343   -3.1451 C   0  0  0  0  0  0  0  0  0  0  0  0
   17.4356    9.7819   -3.6780 N   0  0  0  0  0  0  0  0  0  0  0  0
  1  2  1  0
  2  3  1  0
  3  4  2  0
  4  5  1  0
  5  6  2  0
  6  7  1  0
  7  8  2  0
  8  9  1  0
  9 10  1  0
 10 11  1  0
 11 12  2  0
 11 13  1  0
 13 14  1  0
 14 15  1  0
 15 16  1  0
 16 17  1  0
 17 18  1  0
 18 19  1  0
 19 20  2  0
 20 21  1  0
 21 22  2  0
 22 23  1  0
 23 24  2  0
 24 25  1  0
 25 26  2  0
 26 27  1  0
  8  3  1  0
 15  9  1  0
 27 19  1  0
 26 21  1  0
M  END
$$$$
