
     RDKit          3D

 17 18  0  0  0  0  0  0  0  0999 V2000
  -11.1467    5.6082   -5.3324 C   0  0  0  0  0  0  0  0  0  0  0  0
  -11.8302    6.8205   -5.0412 O   0  0  0  0  0  0  0  0  0  0  0  0
  -11.0545    7.9054   -4.7403 C   0  0  0  0  0  0  0  0  0  0  0  0
  -11.7555    9.0746   -4.4809 C   0  0  0  0  0  0  0  0  0  0  0  0
  -11.0757   10.2502   -4.1555 C   0  0  0  0  0  0  0  0  0  0  0  0
   -9.6707   10.2938   -4.0678 C   0  0  0  0  0  0  0  0  0  0  0  0
   -8.9799   11.5922   -3.6905 C   0  0  0  0  0  0  0  0  0  0  0  0
   -9.7537   12.6139   -2.8332 C   0  0  0  0  0  0  0  0  0  0  0  0
  -10.6622   13.4600   -3.6091 N   0  0  0  0  0  0  0  0  0  0  0  0
   -8.9488    9.1147   -4.3671 C   0  0  0  0  0  0  0  0  0  0  0  0
   -7.5529    8.9831   -4.3757 N   0  0  0  0  0  0  0  0  0  0  0  0
   -6.7846    9.8861   -5.2330 C   0  0  0  0  0  0  0  0  0  0  0  0
   -5.4095    9.2667   -5.4896 C   0  0  0  0  0  0  0  0  0  0  0  0
   -4.6998    8.9442   -4.1741 C   0  0  0  0  0  0  0  0  0  0  0  0
   -5.5759    8.0663   -3.2801 C   0  0  0  0  0  0  0  0  0  0  0  0
   -6.9600    8.6833   -3.0690 C   0  0  0  0  0  0  0  0  0  0  0  0
   -9.6633    7.9351   -4.6825 C   0  0  0  0  0  0  0  0  0  0  0  0
  1  2  1  0
  2  3  1  0
  3  4  2  0
  4  5  1  0
  5  6  2  0
  6  7  1  0
  7  8  1  0
  8  9  1  0
  6 10  1  0
 10 11  1  0
 11 12  1  0
 12 13  1  0
 13 14  1  0
 14 15  1  0
 15 16  1  0
 10 17  2  0
 17  3  1  0
 16 11  1  0
M  END
$$$$
