
     RDKit          3D

 29 32  0  0  0  0  0  0  0  0999 V2000
  -21.2177   11.2586    5.5270 N   0  0  0  0  0  0  0  0  0  0  0  0
  -20.6489   10.6575    4.3261 C   0  0  0  0  0  0  0  0  0  0  0  0
  -21.6551   10.6644    3.1681 C   0  0  0  0  0  0  0  0  0  0  0  0
  -22.9112    9.8024    3.3969 C   0  0  0  0  0  0  0  0  0  0  0  0
  -22.6396    8.3226    3.5957 C   0  0  0  0  0  0  0  0  0  0  0  0
  -22.8030    7.7936    4.8867 C   0  0  0  0  0  0  0  0  0  0  0  0
  -22.5461    6.4497    5.1011 C   0  0  0  0  0  0  0  0  0  0  0  0
  -22.1526    5.5976    4.1292 N   0  0  0  0  0  0  0  0  0  0  0  0
  -22.0333    6.1233    2.8863 C   0  0  0  0  0  0  0  0  0  0  0  0
  -22.2197    7.4698    2.5470 C   0  0  0  0  0  0  0  0  0  0  0  0
  -22.0675    7.9626    1.2557 N   0  0  0  0  0  0  0  0  0  0  0  0
  -23.3266    7.9471    0.4697 C   0  0  0  0  0  0  0  0  0  0  0  0
  -23.3577    6.8320   -0.5679 C   0  0  0  0  0  0  0  0  0  0  0  0
  -24.4050    6.2682   -0.9343 O   0  0  0  0  0  0  0  0  0  0  0  0
  -22.0698    6.5780   -1.3235 C   0  0  0  0  0  0  0  0  0  0  0  0
  -20.8563    6.5632   -0.4145 C   0  0  0  0  0  0  0  0  0  0  0  0
  -20.8148    7.8131    0.4706 C   0  0  0  0  0  0  0  0  0  0  0  0
  -19.4785    7.9488    1.2595 C   0  0  0  0  0  0  0  0  0  0  0  0
  -19.0509    6.7419    1.9812 N   0  0  0  0  0  0  0  0  0  0  0  0
  -17.6450    6.8280    2.4105 C   0  0  0  0  0  0  0  0  0  0  0  0
  -17.3855    7.8789    3.4458 C   0  0  0  0  0  0  0  0  0  0  0  0
  -17.1705    9.1732    3.2355 N   0  0  0  0  0  0  0  0  0  0  0  0
  -16.7820    9.6889    4.4469 C   0  0  0  0  0  0  0  0  0  0  0  0
  -16.3516   10.9876    4.7745 C   0  0  0  0  0  0  0  0  0  0  0  0
  -15.9553   11.2498    6.0935 C   0  0  0  0  0  0  0  0  0  0  0  0
  -15.9948   10.2447    7.0666 C   0  0  0  0  0  0  0  0  0  0  0  0
  -16.4321    8.9462    6.7586 C   0  0  0  0  0  0  0  0  0  0  0  0
  -16.8191    8.7082    5.4347 C   0  0  0  0  0  0  0  0  0  0  0  0
  -17.2654    7.5813    4.7824 N   0  0  0  0  0  0  0  0  0  0  0  0
  1  2  1  0
  2  3  1  0
  3  4  1  0
  4  5  1  0
  5  6  2  0
  6  7  1  0
  7  8  2  0
  8  9  1  0
  9 10  2  0
 10 11  1  0
 11 12  1  0
 12 13  1  0
 13 14  2  0
 13 15  1  0
 15 16  1  0
 16 17  1  0
 17 18  1  0
 18 19  1  0
 19 20  1  0
 20 21  1  0
 21 22  2  0
 22 23  1  0
 23 24  2  0
 24 25  1  0
 25 26  2  0
 26 27  1  0
 27 28  2  0
 28 29  1  0
 10  5  1  0
 17 11  1  0
 29 21  1  0
 28 23  1  0
M  END
$$$$
