
     RDKit          3D

 19 20  0  0  0  0  0  0  0  0999 V2000
  -13.4944    3.5323    2.0117 C   0  0  0  0  0  0  0  0  0  0  0  0
  -12.7741    3.5389    0.7444 N   0  0  0  0  0  0  0  0  0  0  0  0
  -11.4057    2.9944    0.8797 C   0  0  0  0  0  0  0  0  0  0  0  0
  -11.3705    1.4478    1.0125 C   0  0  0  0  0  0  0  0  0  0  0  0
   -9.9299    0.9231    1.0170 C   0  0  0  0  0  0  0  0  0  0  0  0
   -9.3071    0.9942    2.3995 C   0  0  0  0  0  0  0  0  0  0  0  0
   -9.6835    1.8179    3.2414 O   0  0  0  0  0  0  0  0  0  0  0  0
   -8.2312   -0.0232    2.7325 C   0  0  0  0  0  0  0  0  0  0  0  0
   -7.1131   -0.0311    1.7434 C   0  0  0  0  0  0  0  0  0  0  0  0
   -6.8133   -1.0440    0.8520 C   0  0  0  0  0  0  0  0  0  0  0  0
   -5.6931   -0.6801    0.1511 N   0  0  0  0  0  0  0  0  0  0  0  0
   -5.2732    0.5690    0.5379 C   0  0  0  0  0  0  0  0  0  0  0  0
   -4.1944    1.3386    0.0854 C   0  0  0  0  0  0  0  0  0  0  0  0
   -3.9939    2.5866    0.6820 C   0  0  0  0  0  0  0  0  0  0  0  0
   -4.8372    3.0428    1.6921 C   0  0  0  0  0  0  0  0  0  0  0  0
   -5.9126    2.2605    2.1320 C   0  0  0  0  0  0  0  0  0  0  0  0
   -6.1388    0.9989    1.5438 C   0  0  0  0  0  0  0  0  0  0  0  0
  -12.0717    0.9029   -0.1275 O   0  0  0  0  0  0  0  0  0  0  0  0
  -12.6917   -0.3494    0.1442 C   0  0  0  0  0  0  0  0  0  0  0  0
  1  2  1  0
  2  3  1  0
  3  4  1  0
  4  5  1  0
  5  6  1  0
  6  7  2  0
  6  8  1  0
  8  9  1  0
  9 10  2  0
 10 11  1  0
 11 12  1  0
 12 13  2  0
 13 14  1  0
 14 15  2  0
 15 16  1  0
 16 17  2  0
  4 18  1  0
 18 19  1  0
 17  9  1  0
 17 12  1  0
M  END
$$$$
