
     RDKit          3D

 23 25  0  0  0  0  0  0  0  0999 V2000
   -0.5295    2.5585   10.0989 C   0  0  0  0  0  0  0  0  0  0  0  0
    0.6147    1.8631   10.5787 O   0  0  0  0  0  0  0  0  0  0  0  0
    1.4139    2.5299   11.4662 C   0  0  0  0  0  0  0  0  0  0  0  0
    1.2959    3.8665   11.8284 C   0  0  0  0  0  0  0  0  0  0  0  0
    2.1876    4.4160   12.7521 C   0  0  0  0  0  0  0  0  0  0  0  0
    3.2063    3.6408   13.3428 C   0  0  0  0  0  0  0  0  0  0  0  0
    4.1088    4.2866   14.3729 C   0  0  0  0  0  0  0  0  0  0  0  0
    3.3630    4.7772   15.5384 N   0  0  0  0  0  0  0  0  0  0  0  0
    3.3535    2.2931   12.9528 C   0  0  0  0  0  0  0  0  0  0  0  0
    4.4124    1.5116   13.4594 N   0  0  0  0  0  0  0  0  0  0  0  0
    3.9996    0.2826   14.1564 C   0  0  0  0  0  0  0  0  0  0  0  0
    4.0728   -0.9518   13.2763 C   0  0  0  0  0  0  0  0  0  0  0  0
    3.2954   -1.8990   13.4073 O   0  0  0  0  0  0  0  0  0  0  0  0
    5.1734   -0.9931   12.2462 C   0  0  0  0  0  0  0  0  0  0  0  0
    6.2245    0.0602   12.5650 C   0  0  0  0  0  0  0  0  0  0  0  0
    5.5963    1.4793   12.5622 C   0  0  0  0  0  0  0  0  0  0  0  0
    6.6087    2.5246   12.7692 N   0  0  0  0  0  0  0  0  0  0  0  0
    7.4217    2.3875   13.9688 C   0  0  0  0  0  0  0  0  0  0  0  0
    8.0797    3.7286   14.3172 C   0  0  0  0  0  0  0  0  0  0  0  0
    8.5314    4.5206   13.0873 C   0  0  0  0  0  0  0  0  0  0  0  0
    8.6846    3.6124   11.8752 C   0  0  0  0  0  0  0  0  0  0  0  0
    7.3785    2.8640   11.5712 C   0  0  0  0  0  0  0  0  0  0  0  0
    2.4405    1.7598   12.0218 C   0  0  0  0  0  0  0  0  0  0  0  0
  1  2  1  0
  2  3  1  0
  3  4  2  0
  4  5  1  0
  5  6  2  0
  6  7  1  0
  7  8  1  0
  6  9  1  0
  9 10  1  0
 10 11  1  0
 11 12  1  0
 12 13  2  0
 12 14  1  0
 14 15  1  0
 15 16  1  0
 16 17  1  0
 17 18  1  0
 18 19  1  0
 19 20  1  0
 20 21  1  0
 21 22  1  0
  9 23  2  0
 23  3  1  0
 16 10  1  0
 22 17  1  0
M  END
$$$$
