
     RDKit          3D

 30 32  0  0  0  0  0  0  0  0999 V2000
  -11.9976  -17.1411    7.2608 C   0  0  0  0  0  0  0  0  0  0  0  0
  -11.2469  -17.0709    8.4957 N   0  0  0  0  0  0  0  0  0  0  0  0
   -9.9885  -16.4943    8.5345 C   0  0  0  0  0  0  0  0  0  0  0  0
   -9.4271  -16.0561    7.5296 O   0  0  0  0  0  0  0  0  0  0  0  0
   -9.3549  -16.4991    9.9178 C   0  0  0  0  0  0  0  0  0  0  0  0
   -8.8473  -15.1454   10.3572 C   0  0  0  0  0  0  0  0  0  0  0  0
   -9.8005  -14.2194   10.8263 C   0  0  0  0  0  0  0  0  0  0  0  0
   -9.4119  -12.9799   11.3256 C   0  0  0  0  0  0  0  0  0  0  0  0
   -8.0664  -12.6403   11.3780 C   0  0  0  0  0  0  0  0  0  0  0  0
   -7.8098  -11.4069   11.9063 O   0  0  0  0  0  0  0  0  0  0  0  0
   -6.4758  -10.9276   11.7900 C   0  0  0  0  0  0  0  0  0  0  0  0
   -7.1161  -13.5556   10.9162 C   0  0  0  0  0  0  0  0  0  0  0  0
   -7.4821  -14.7999   10.3667 C   0  0  0  0  0  0  0  0  0  0  0  0
   -6.4799  -15.6432    9.9000 N   0  0  0  0  0  0  0  0  0  0  0  0
   -5.7722  -16.4706   10.8779 C   0  0  0  0  0  0  0  0  0  0  0  0
   -5.7746  -17.9219   10.4281 C   0  0  0  0  0  0  0  0  0  0  0  0
   -5.9816  -18.8538   11.2043 O   0  0  0  0  0  0  0  0  0  0  0  0
   -5.4196  -18.1649    8.9793 C   0  0  0  0  0  0  0  0  0  0  0  0
   -6.2812  -17.2848    8.0816 C   0  0  0  0  0  0  0  0  0  0  0  0
   -6.2256  -15.7896    8.4606 C   0  0  0  0  0  0  0  0  0  0  0  0
   -4.8570  -15.2053    8.0562 C   0  0  0  0  0  0  0  0  0  0  0  0
   -4.7773  -13.6849    8.1824 C   0  0  0  0  0  0  0  0  0  0  0  0
   -3.5875  -13.1578    7.5285 N   0  0  0  0  0  0  0  0  0  0  0  0
   -2.3596  -13.4142    8.1122 C   0  0  0  0  0  0  0  0  0  0  0  0
   -2.2523  -13.5536    9.4469 N   0  0  0  0  0  0  0  0  0  0  0  0
   -1.0136  -13.7509    9.9458 C   0  0  0  0  0  0  0  0  0  0  0  0
    0.1075  -13.8286    9.1627 C   0  0  0  0  0  0  0  0  0  0  0  0
    1.3204  -14.0222    9.6797 F   0  0  0  0  0  0  0  0  0  0  0  0
   -0.1000  -13.6947    7.8145 C   0  0  0  0  0  0  0  0  0  0  0  0
   -1.3193  -13.4934    7.2658 N   0  0  0  0  0  0  0  0  0  0  0  0
  1  2  1  0
  2  3  1  0
  3  4  2  0
  3  5  1  0
  5  6  1  0
  6  7  2  0
  7  8  1  0
  8  9  2  0
  9 10  1  0
 10 11  1  0
  9 12  1  0
 12 13  2  0
 13 14  1  0
 14 15  1  0
 15 16  1  0
 16 17  2  0
 16 18  1  0
 18 19  1  0
 19 20  1  0
 20 21  1  0
 21 22  1  0
 22 23  1  0
 23 24  1  0
 24 25  2  0
 25 26  1  0
 26 27  2  0
 27 28  1  0
 27 29  1  0
 29 30  2  0
 13  6  1  0
 20 14  1  0
 30 24  1  0
M  END
$$$$
