
     RDKit          3D

 29 32  0  0  0  0  0  0  0  0999 V2000
  -28.5666   -8.3933   30.3125 N   0  0  0  0  0  0  0  0  0  0  0  0
  -29.6234   -8.8084   31.1640 C   0  0  0  0  0  0  0  0  0  0  0  0
  -30.0911  -10.1221   31.0473 C   0  0  0  0  0  0  0  0  0  0  0  0
  -31.0989  -10.5843   31.8876 C   0  0  0  0  0  0  0  0  0  0  0  0
  -31.6177   -9.7261   32.8563 C   0  0  0  0  0  0  0  0  0  0  0  0
  -32.9149  -10.2866   33.9239 S   0  0  0  0  0  0  0  0  0  0  0  0
  -34.2802   -9.7409   33.1008 N   0  0  0  0  0  0  0  0  0  0  0  0
  -32.9753  -11.7289   33.8627 O   0  0  0  0  0  0  0  0  0  0  0  0
  -32.8314   -9.5658   35.1717 O   0  0  0  0  0  0  0  0  0  0  0  0
  -31.1105   -8.4310   33.0269 C   0  0  0  0  0  0  0  0  0  0  0  0
  -30.0831   -7.9563   32.2060 C   0  0  0  0  0  0  0  0  0  0  0  0
  -29.4891   -6.6923   32.3801 N   0  0  0  0  0  0  0  0  0  0  0  0
  -30.3493   -5.5368   32.6755 C   0  0  0  0  0  0  0  0  0  0  0  0
  -30.4340   -5.2009   34.1639 C   0  0  0  0  0  0  0  0  0  0  0  0
  -29.0681   -5.1776   34.8379 C   0  0  0  0  0  0  0  0  0  0  0  0
  -28.3073   -6.4664   34.5471 C   0  0  0  0  0  0  0  0  0  0  0  0
  -28.1532   -6.7274   33.0392 C   0  0  0  0  0  0  0  0  0  0  0  0
  -27.2107   -5.7337   32.3244 C   0  0  0  0  0  0  0  0  0  0  0  0
  -25.7610   -5.7566   32.8147 C   0  0  0  0  0  0  0  0  0  0  0  0
  -25.1991   -7.0965   32.7850 N   0  0  0  0  0  0  0  0  0  0  0  0
  -24.3980   -7.4837   31.7132 C   0  0  0  0  0  0  0  0  0  0  0  0
  -23.4689   -8.4343   32.0026 N   0  0  0  0  0  0  0  0  0  0  0  0
  -22.6669   -8.8929   31.0169 C   0  0  0  0  0  0  0  0  0  0  0  0
  -22.6458   -8.5266   29.7222 N   0  0  0  0  0  0  0  0  0  0  0  0
  -23.5710   -7.5875   29.4852 C   0  0  0  0  0  0  0  0  0  0  0  0
  -23.8322   -6.9915   28.2861 N   0  0  0  0  0  0  0  0  0  0  0  0
  -24.8428   -6.0930   28.4840 C   0  0  0  0  0  0  0  0  0  0  0  0
  -25.2420   -6.0751   29.7377 N   0  0  0  0  0  0  0  0  0  0  0  0
  -24.4607   -7.0180   30.3824 C   0  0  0  0  0  0  0  0  0  0  0  0
  1  2  1  0
  2  3  2  0
  3  4  1  0
  4  5  2  0
  5  6  1  0
  6  7  1  0
  6  8  2  0
  6  9  2  0
  5 10  1  0
 10 11  2  0
 11 12  1  0
 12 13  1  0
 13 14  1  0
 14 15  1  0
 15 16  1  0
 16 17  1  0
 17 18  1  0
 18 19  1  0
 19 20  1  0
 20 21  1  0
 21 22  2  0
 22 23  1  0
 23 24  2  0
 24 25  1  0
 25 26  1  0
 26 27  1  0
 27 28  2  0
 28 29  1  0
 11  2  1  0
 17 12  1  0
 29 21  1  0
 29 25  2  0
M  END
$$$$
