
     RDKit          3D

 31 33  0  0  0  0  0  0  0  0999 V2000
   -0.9277   11.2054  -18.8718 C   0  0  0  0  0  0  0  0  0  0  0  0
   -0.5334   10.1041  -19.6831 O   0  0  0  0  0  0  0  0  0  0  0  0
    0.6948   10.1823  -20.2819 C   0  0  0  0  0  0  0  0  0  0  0  0
    1.0636    9.0511  -21.0005 C   0  0  0  0  0  0  0  0  0  0  0  0
    2.2909    9.0038  -21.6569 C   0  0  0  0  0  0  0  0  0  0  0  0
    3.1801   10.0935  -21.6089 C   0  0  0  0  0  0  0  0  0  0  0  0
    4.5082    9.9454  -22.3355 C   0  0  0  0  0  0  0  0  0  0  0  0
    5.6789   10.4088  -21.5810 N   0  0  0  0  0  0  0  0  0  0  0  0
    5.9866    9.5067  -20.4462 C   0  0  0  0  0  0  0  0  0  0  0  0
    7.1899   10.0395  -19.6481 C   0  0  0  0  0  0  0  0  0  0  0  0
    7.3998    9.6668  -18.4977 O   0  0  0  0  0  0  0  0  0  0  0  0
    7.9666   10.9081  -20.3862 N   0  0  0  0  0  0  0  0  0  0  0  0
    9.1279   11.6124  -20.0148 C   0  0  0  0  0  0  0  0  0  0  0  0
    9.6712   11.5681  -18.7288 C   0  0  0  0  0  0  0  0  0  0  0  0
   10.8374   12.2840  -18.4161 C   0  0  0  0  0  0  0  0  0  0  0  0
   11.4052   12.2394  -17.0209 C   0  0  0  0  0  0  0  0  0  0  0  0
   10.8834   13.3267  -16.2045 N   0  0  0  0  0  0  0  0  0  0  0  0
   11.4418   13.0643  -19.4086 C   0  0  0  0  0  0  0  0  0  0  0  0
   10.9032   13.1220  -20.6969 C   0  0  0  0  0  0  0  0  0  0  0  0
    9.7486   12.3995  -21.0078 C   0  0  0  0  0  0  0  0  0  0  0  0
    9.1364   12.3907  -22.2402 O   0  0  0  0  0  0  0  0  0  0  0  0
    9.7928   13.0822  -23.2938 C   0  0  0  0  0  0  0  0  0  0  0  0
    2.8062   11.2658  -20.9022 C   0  0  0  0  0  0  0  0  0  0  0  0
    3.6737   12.3781  -20.8697 N   0  0  0  0  0  0  0  0  0  0  0  0
    3.6213   13.2204  -22.0790 C   0  0  0  0  0  0  0  0  0  0  0  0
    2.5347   14.2875  -21.9666 C   0  0  0  0  0  0  0  0  0  0  0  0
    2.7414   15.1553  -20.7351 C   0  0  0  0  0  0  0  0  0  0  0  0
    2.8347   14.2845  -19.5067 C   0  0  0  0  0  0  0  0  0  0  0  0
    2.2235   14.5652  -18.4767 O   0  0  0  0  0  0  0  0  0  0  0  0
    3.7994   13.1117  -19.5898 C   0  0  0  0  0  0  0  0  0  0  0  0
    1.5639   11.2760  -20.2356 C   0  0  0  0  0  0  0  0  0  0  0  0
  1  2  1  0
  2  3  1  0
  3  4  2  0
  4  5  1  0
  5  6  2  0
  6  7  1  0
  7  8  1  0
  8  9  1  0
  9 10  1  0
 10 11  2  0
 10 12  1  0
 12 13  1  0
 13 14  2  0
 14 15  1  0
 15 16  1  0
 16 17  1  0
 15 18  2  0
 18 19  1  0
 19 20  2  0
 20 21  1  0
 21 22  1  0
  6 23  1  0
 23 24  1  0
 24 25  1  0
 25 26  1  0
 26 27  1  0
 27 28  1  0
 28 29  2  0
 28 30  1  0
 23 31  2  0
 31  3  1  0
 20 13  1  0
 30 24  1  0
M  END
$$$$
