
     RDKit          3D

 29 31  0  0  0  0  0  0  0  0999 V2000
   -0.2400    0.6942  -11.7456 N   0  0  0  0  0  0  0  0  0  0  0  0
   -0.9906    0.6753  -12.8873 C   0  0  0  0  0  0  0  0  0  0  0  0
   -1.3430    1.7088  -13.4370 O   0  0  0  0  0  0  0  0  0  0  0  0
   -1.3758   -0.6634  -13.4079 C   0  0  0  0  0  0  0  0  0  0  0  0
   -0.4134   -1.6888  -13.3975 C   0  0  0  0  0  0  0  0  0  0  0  0
   -0.7128   -2.9440  -13.9286 C   0  0  0  0  0  0  0  0  0  0  0  0
   -1.9656   -3.1730  -14.4878 C   0  0  0  0  0  0  0  0  0  0  0  0
   -2.3313   -4.7137  -15.1600 Cl  0  0  0  0  0  0  0  0  0  0  0  0
   -2.9245   -2.1603  -14.5116 C   0  0  0  0  0  0  0  0  0  0  0  0
   -2.6587   -0.8933  -13.9497 C   0  0  0  0  0  0  0  0  0  0  0  0
   -3.7110    0.2037  -13.9881 C   0  0  0  0  0  0  0  0  0  0  0  0
   -5.0577   -0.3712  -13.9960 N   0  0  0  0  0  0  0  0  0  0  0  0
   -6.1395    0.5421  -13.9368 C   0  0  0  0  0  0  0  0  0  0  0  0
   -6.1722    1.7193  -14.6948 C   0  0  0  0  0  0  0  0  0  0  0  0
   -7.2797    2.5676  -14.6432 C   0  0  0  0  0  0  0  0  0  0  0  0
   -8.3709    2.2259  -13.8445 C   0  0  0  0  0  0  0  0  0  0  0  0
   -9.8004    3.2623  -13.8060 S   0  0  0  0  0  0  0  0  0  0  0  0
   -9.7364    3.8938  -12.2516 N   0  0  0  0  0  0  0  0  0  0  0  0
   -9.6045    4.3876  -14.6910 O   0  0  0  0  0  0  0  0  0  0  0  0
  -10.9790    2.4310  -13.8589 O   0  0  0  0  0  0  0  0  0  0  0  0
   -8.3796    1.0381  -13.1075 C   0  0  0  0  0  0  0  0  0  0  0  0
   -7.2722    0.1805  -13.1494 C   0  0  0  0  0  0  0  0  0  0  0  0
   -7.2435   -1.0597  -12.4520 N   0  0  0  0  0  0  0  0  0  0  0  0
   -7.7129   -2.1518  -13.3332 C   0  0  0  0  0  0  0  0  0  0  0  0
   -8.2705   -3.3124  -12.5148 C   0  0  0  0  0  0  0  0  0  0  0  0
   -9.4751   -2.8510  -11.7049 C   0  0  0  0  0  0  0  0  0  0  0  0
   -9.1708   -1.5758  -10.9518 C   0  0  0  0  0  0  0  0  0  0  0  0
  -10.0221   -1.0443  -10.2364 O   0  0  0  0  0  0  0  0  0  0  0  0
   -7.7607   -1.0243  -11.0680 C   0  0  0  0  0  0  0  0  0  0  0  0
  1  2  1  0
  2  3  2  0
  2  4  1  0
  4  5  2  0
  5  6  1  0
  6  7  2  0
  7  8  1  0
  7  9  1  0
  9 10  2  0
 10 11  1  0
 11 12  1  0
 12 13  1  0
 13 14  2  0
 14 15  1  0
 15 16  2  0
 16 17  1  0
 17 18  1  0
 17 19  2  0
 17 20  2  0
 16 21  1  0
 21 22  2  0
 22 23  1  0
 23 24  1  0
 24 25  1  0
 25 26  1  0
 26 27  1  0
 27 28  2  0
 27 29  1  0
 10  4  1  0
 22 13  1  0
 29 23  1  0
M  END
$$$$
