
     RDKit          3D

 18 19  0  0  0  0  0  0  0  0999 V2000
   -0.6313    3.7079  -10.4108 N   0  0  0  0  0  0  0  0  0  0  0  0
   -1.4520    2.6657  -11.0171 C   0  0  0  0  0  0  0  0  0  0  0  0
   -1.3493    1.3741  -10.2041 C   0  0  0  0  0  0  0  0  0  0  0  0
   -2.0962    0.2109  -10.8558 C   0  0  0  0  0  0  0  0  0  0  0  0
   -3.6111    0.3234  -10.7840 C   0  0  0  0  0  0  0  0  0  0  0  0
   -4.1798    1.2326  -10.1811 O   0  0  0  0  0  0  0  0  0  0  0  0
   -4.3862   -0.7748  -11.4994 C   0  0  0  0  0  0  0  0  0  0  0  0
   -5.8997   -0.6079  -11.3813 C   0  0  0  0  0  0  0  0  0  0  0  0
   -6.4282    0.5325  -12.2563 C   0  0  0  0  0  0  0  0  0  0  0  0
   -7.8566    0.8211  -11.9531 C   0  0  0  0  0  0  0  0  0  0  0  0
   -8.9113    0.3440  -12.5802 N   0  0  0  0  0  0  0  0  0  0  0  0
   -9.9971    0.8898  -11.9387 C   0  0  0  0  0  0  0  0  0  0  0  0
  -11.3663    0.7227  -12.1913 C   0  0  0  0  0  0  0  0  0  0  0  0
  -12.2869    1.3988  -11.3800 C   0  0  0  0  0  0  0  0  0  0  0  0
  -11.8527    2.2237  -10.3390 C   0  0  0  0  0  0  0  0  0  0  0  0
  -10.4900    2.4028  -10.0718 C   0  0  0  0  0  0  0  0  0  0  0  0
   -9.5954    1.7176  -10.8963 C   0  0  0  0  0  0  0  0  0  0  0  0
   -8.2265    1.6570  -10.9271 N   0  0  0  0  0  0  0  0  0  0  0  0
  1  2  1  0
  2  3  1  0
  3  4  1  0
  4  5  1  0
  5  6  2  0
  5  7  1  0
  7  8  1  0
  8  9  1  0
  9 10  1  0
 10 11  2  0
 11 12  1  0
 12 13  2  0
 13 14  1  0
 14 15  2  0
 15 16  1  0
 16 17  2  0
 17 18  1  0
 18 10  1  0
 17 12  1  0
M  END
$$$$
