
     RDKit          3D

 24 26  0  0  0  0  0  0  0  0999 V2000
    5.9156   23.0109   -2.8343 C   0  0  0  0  0  0  0  0  0  0  0  0
    7.0672   22.1841   -2.7273 O   0  0  0  0  0  0  0  0  0  0  0  0
    6.8738   20.8711   -2.3942 C   0  0  0  0  0  0  0  0  0  0  0  0
    5.6450   20.3255   -2.0111 C   0  0  0  0  0  0  0  0  0  0  0  0
    5.5421   18.9734   -1.6701 C   0  0  0  0  0  0  0  0  0  0  0  0
    6.6494   18.1327   -1.7414 C   0  0  0  0  0  0  0  0  0  0  0  0
    6.5671   16.8107   -1.2901 N   0  0  0  0  0  0  0  0  0  0  0  0
    7.8880   18.6917   -2.0568 C   0  0  0  0  0  0  0  0  0  0  0  0
    8.0150   20.0507   -2.4168 C   0  0  0  0  0  0  0  0  0  0  0  0
    9.3847   20.6082   -2.7670 C   0  0  0  0  0  0  0  0  0  0  0  0
   10.1698   20.7474   -1.5708 O   0  0  0  0  0  0  0  0  0  0  0  0
   10.1173   19.7359   -3.8200 C   0  0  0  0  0  0  0  0  0  0  0  0
    9.6678   19.4888   -4.9370 O   0  0  0  0  0  0  0  0  0  0  0  0
   11.3289   19.2482   -3.3739 N   0  0  0  0  0  0  0  0  0  0  0  0
   12.2268   18.5571   -4.2617 C   0  0  0  0  0  0  0  0  0  0  0  0
   13.3619   18.0268   -3.4577 C   0  0  0  0  0  0  0  0  0  0  0  0
   13.4104   16.8079   -2.8052 C   0  0  0  0  0  0  0  0  0  0  0  0
   14.6217   16.7012   -2.1779 N   0  0  0  0  0  0  0  0  0  0  0  0
   15.3784   17.8271   -2.4087 C   0  0  0  0  0  0  0  0  0  0  0  0
   16.6695   18.1503   -1.9736 C   0  0  0  0  0  0  0  0  0  0  0  0
   17.1983   19.3825   -2.3703 C   0  0  0  0  0  0  0  0  0  0  0  0
   16.4598   20.2578   -3.1621 C   0  0  0  0  0  0  0  0  0  0  0  0
   15.1681   19.9214   -3.5838 C   0  0  0  0  0  0  0  0  0  0  0  0
   14.6141   18.6792   -3.2068 C   0  0  0  0  0  0  0  0  0  0  0  0
  1  2  1  0
  2  3  1  0
  3  4  2  0
  4  5  1  0
  5  6  2  0
  6  7  1  0
  6  8  1  0
  8  9  2  0
  9 10  1  0
 10 11  1  0
 10 12  1  0
 12 13  2  0
 12 14  1  0
 14 15  1  0
 15 16  1  0
 16 17  2  0
 17 18  1  0
 18 19  1  0
 19 20  2  0
 20 21  1  0
 21 22  2  0
 22 23  1  0
 23 24  2  0
  9  3  1  0
 24 16  1  0
 24 19  1  0
M  END
$$$$
