
     RDKit          3D

 26 28  0  0  0  0  0  0  0  0999 V2000
  -32.2773   22.8309   60.8800 C   0  0  0  0  0  0  0  0  0  0  0  0
  -32.7506   22.0032   59.8009 N   0  0  0  0  0  0  0  0  0  0  0  0
  -32.8586   20.6318   59.9497 C   0  0  0  0  0  0  0  0  0  0  0  0
  -32.6680   20.0676   61.0232 O   0  0  0  0  0  0  0  0  0  0  0  0
  -33.2749   19.9179   58.6752 C   0  0  0  0  0  0  0  0  0  0  0  0
  -32.7337   18.5116   58.5369 C   0  0  0  0  0  0  0  0  0  0  0  0
  -33.4759   17.4687   59.1278 C   0  0  0  0  0  0  0  0  0  0  0  0
  -33.1171   16.1318   58.9544 C   0  0  0  0  0  0  0  0  0  0  0  0
  -32.0142   15.8135   58.1746 C   0  0  0  0  0  0  0  0  0  0  0  0
  -31.5566   14.5533   57.9003 O   0  0  0  0  0  0  0  0  0  0  0  0
  -32.2577   13.4730   58.5032 C   0  0  0  0  0  0  0  0  0  0  0  0
  -31.2668   16.8472   57.6009 C   0  0  0  0  0  0  0  0  0  0  0  0
  -31.5751   18.2083   57.7948 C   0  0  0  0  0  0  0  0  0  0  0  0
  -30.7504   19.1783   57.2382 N   0  0  0  0  0  0  0  0  0  0  0  0
  -30.6725   19.2824   55.7926 C   0  0  0  0  0  0  0  0  0  0  0  0
  -31.8523   19.9245   55.3222 O   0  0  0  0  0  0  0  0  0  0  0  0
  -29.4613   20.1015   55.3442 C   0  0  0  0  0  0  0  0  0  0  0  0
  -29.4047   21.4766   56.0176 C   0  0  0  0  0  0  0  0  0  0  0  0
  -30.0367   21.4680   57.4132 C   0  0  0  0  0  0  0  0  0  0  0  0
  -29.9376   20.0687   58.0845 C   0  0  0  0  0  0  0  0  0  0  0  0
  -28.5052   19.7747   58.3644 N   0  0  0  0  0  0  0  0  0  0  0  0
  -28.2903   18.3859   58.7672 C   0  0  0  0  0  0  0  0  0  0  0  0
  -26.7929   18.0567   58.8479 C   0  0  0  0  0  0  0  0  0  0  0  0
  -25.9512   19.1777   59.4520 C   0  0  0  0  0  0  0  0  0  0  0  0
  -26.8237   20.1393   60.2371 C   0  0  0  0  0  0  0  0  0  0  0  0
  -27.9395   20.7148   59.3554 C   0  0  0  0  0  0  0  0  0  0  0  0
  1  2  1  0
  2  3  1  0
  3  4  2  0
  3  5  1  0
  5  6  1  0
  6  7  2  0
  7  8  1  0
  8  9  2  0
  9 10  1  0
 10 11  1  0
  9 12  1  0
 12 13  2  0
 13 14  1  0
 14 15  1  0
 15 16  1  0
 15 17  1  0
 17 18  1  0
 18 19  1  0
 19 20  1  0
 20 21  1  0
 21 22  1  0
 22 23  1  0
 23 24  1  0
 24 25  1  0
 25 26  1  0
 13  6  1  0
 20 14  1  0
 26 21  1  0
M  END
$$$$
