
     RDKit          3D

 26 28  0  0  0  0  0  0  0  0999 V2000
   22.7900    7.8275    0.2659 C   0  0  0  0  0  0  0  0  0  0  0  0
   23.3370    8.8317   -0.6089 N   0  0  0  0  0  0  0  0  0  0  0  0
   24.3076    9.7042   -0.1718 C   0  0  0  0  0  0  0  0  0  0  0  0
   24.8273    9.6389    0.9319 O   0  0  0  0  0  0  0  0  0  0  0  0
   24.7051   10.7326   -1.2097 C   0  0  0  0  0  0  0  0  0  0  0  0
   24.0058   12.0594   -1.0229 C   0  0  0  0  0  0  0  0  0  0  0  0
   24.6132   13.0008   -0.1736 C   0  0  0  0  0  0  0  0  0  0  0  0
   24.0311   14.2470    0.0585 C   0  0  0  0  0  0  0  0  0  0  0  0
   22.8303   14.5738   -0.5583 C   0  0  0  0  0  0  0  0  0  0  0  0
   22.1581   15.7580   -0.4319 O   0  0  0  0  0  0  0  0  0  0  0  0
   22.7758   16.7606    0.3655 C   0  0  0  0  0  0  0  0  0  0  0  0
   22.2111   13.6371   -1.3916 C   0  0  0  0  0  0  0  0  0  0  0  0
   22.7656   12.3654   -1.6282 C   0  0  0  0  0  0  0  0  0  0  0  0
   22.1463   11.4195   -2.4943 N   0  0  0  0  0  0  0  0  0  0  0  0
   22.6305   11.6843   -3.8768 C   0  0  0  0  0  0  0  0  0  0  0  0
   22.1147   10.6545   -4.8751 C   0  0  0  0  0  0  0  0  0  0  0  0
   22.6680   10.4995   -5.9799 O   0  0  0  0  0  0  0  0  0  0  0  0
   20.7873    9.9728   -4.5983 C   0  0  0  0  0  0  0  0  0  0  0  0
   20.3176   10.0094   -3.1459 C   0  0  0  0  0  0  0  0  0  0  0  0
   20.6575   11.3520   -2.4549 C   0  0  0  0  0  0  0  0  0  0  0  0
   19.9124   11.5228   -1.2070 N   0  0  0  0  0  0  0  0  0  0  0  0
   18.5147   11.8994   -1.3546 C   0  0  0  0  0  0  0  0  0  0  0  0
   17.9775   12.4045   -0.0167 C   0  0  0  0  0  0  0  0  0  0  0  0
   18.1479   11.3882    1.1127 C   0  0  0  0  0  0  0  0  0  0  0  0
   18.9833   10.1847    0.6926 C   0  0  0  0  0  0  0  0  0  0  0  0
   20.2115   10.5884   -0.1263 C   0  0  0  0  0  0  0  0  0  0  0  0
  1  2  1  0
  2  3  1  0
  3  4  2  0
  3  5  1  0
  5  6  1  0
  6  7  2  0
  7  8  1  0
  8  9  2  0
  9 10  1  0
 10 11  1  0
  9 12  1  0
 12 13  2  0
 13 14  1  0
 14 15  1  0
 15 16  1  0
 16 17  2  0
 16 18  1  0
 18 19  1  0
 19 20  1  0
 20 21  1  0
 21 22  1  0
 22 23  1  0
 23 24  1  0
 24 25  1  0
 25 26  1  0
 13  6  1  0
 20 14  1  0
 26 21  1  0
M  END
$$$$
