
     RDKit          3D

 25 27  0  0  0  0  0  0  0  0999 V2000
    2.3899   13.7460   -7.9462 N   0  0  0  0  0  0  0  0  0  0  0  0
    3.6842   14.2467   -7.4755 C   0  0  0  0  0  0  0  0  0  0  0  0
    4.8561   13.3627   -7.9470 C   0  0  0  0  0  0  0  0  0  0  0  0
    5.0979   13.3500   -9.4663 C   0  0  0  0  0  0  0  0  0  0  0  0
    5.6383   14.6608  -10.0039 C   0  0  0  0  0  0  0  0  0  0  0  0
    4.7567   15.5187  -10.6779 C   0  0  0  0  0  0  0  0  0  0  0  0
    5.2209   16.7392  -11.1415 C   0  0  0  0  0  0  0  0  0  0  0  0
    6.4880   17.1684  -10.9811 N   0  0  0  0  0  0  0  0  0  0  0  0
    7.3341   16.3247  -10.3468 C   0  0  0  0  0  0  0  0  0  0  0  0
    6.9831   15.0662   -9.8476 C   0  0  0  0  0  0  0  0  0  0  0  0
    8.0244   14.2433   -9.1261 C   0  0  0  0  0  0  0  0  0  0  0  0
    9.3462   14.3252   -9.7479 N   0  0  0  0  0  0  0  0  0  0  0  0
    9.6677   13.3409  -10.7211 C   0  0  0  0  0  0  0  0  0  0  0  0
    8.7818   12.9607  -11.7315 C   0  0  0  0  0  0  0  0  0  0  0  0
    9.1850   12.0001  -12.6482 C   0  0  0  0  0  0  0  0  0  0  0  0
   10.3945   11.4014  -12.6365 N   0  0  0  0  0  0  0  0  0  0  0  0
   11.2582   11.8168  -11.6786 C   0  0  0  0  0  0  0  0  0  0  0  0
   10.9755   12.7879  -10.7100 C   0  0  0  0  0  0  0  0  0  0  0  0
   11.9173   13.2543   -9.7450 N   0  0  0  0  0  0  0  0  0  0  0  0
   12.8423   12.2421   -9.2372 C   0  0  0  0  0  0  0  0  0  0  0  0
   13.4944   12.8325   -7.9939 C   0  0  0  0  0  0  0  0  0  0  0  0
   14.3017   14.0916   -8.3072 C   0  0  0  0  0  0  0  0  0  0  0  0
   13.9281   14.7720   -9.6064 C   0  0  0  0  0  0  0  0  0  0  0  0
   14.7132   15.5809  -10.1219 O   0  0  0  0  0  0  0  0  0  0  0  0
   12.5538   14.5090  -10.2279 C   0  0  0  0  0  0  0  0  0  0  0  0
  1  2  1  0
  2  3  1  0
  3  4  1  0
  4  5  1  0
  5  6  2  0
  6  7  1  0
  7  8  2  0
  8  9  1  0
  9 10  2  0
 10 11  1  0
 11 12  1  0
 12 13  1  0
 13 14  2  0
 14 15  1  0
 15 16  2  0
 16 17  1  0
 17 18  2  0
 18 19  1  0
 19 20  1  0
 20 21  1  0
 21 22  1  0
 22 23  1  0
 23 24  2  0
 23 25  1  0
 10  5  1  0
 18 13  1  0
 25 19  1  0
M  END
$$$$
