
     RDKit          3D

 16 17  0  0  0  0  0  0  0  0999 V2000
  -15.3081   18.3606  -11.0353 N   0  0  0  0  0  0  0  0  0  0  0  0
  -14.7465   17.2698  -10.2502 C   0  0  0  0  0  0  0  0  0  0  0  0
  -15.8429   16.5822   -9.4397 C   0  0  0  0  0  0  0  0  0  0  0  0
  -15.2604   15.5001   -8.5396 C   0  0  0  0  0  0  0  0  0  0  0  0
  -16.3279   14.6115   -7.9315 C   0  0  0  0  0  0  0  0  0  0  0  0
  -16.3766   13.4119   -8.2185 O   0  0  0  0  0  0  0  0  0  0  0  0
  -17.3036   15.2358   -6.9507 C   0  0  0  0  0  0  0  0  0  0  0  0
  -18.6094   15.5792   -7.5887 C   0  0  0  0  0  0  0  0  0  0  0  0
  -19.4763   14.6933   -8.2008 C   0  0  0  0  0  0  0  0  0  0  0  0
  -20.5612   15.3897   -8.6554 N   0  0  0  0  0  0  0  0  0  0  0  0
  -20.4337   16.7224   -8.3441 C   0  0  0  0  0  0  0  0  0  0  0  0
  -21.2959   17.7938   -8.6069 C   0  0  0  0  0  0  0  0  0  0  0  0
  -20.9080   19.0617   -8.1661 C   0  0  0  0  0  0  0  0  0  0  0  0
  -19.7063   19.2473   -7.4884 C   0  0  0  0  0  0  0  0  0  0  0  0
  -18.8566   18.1645   -7.2328 C   0  0  0  0  0  0  0  0  0  0  0  0
  -19.2212   16.8733   -7.6694 C   0  0  0  0  0  0  0  0  0  0  0  0
  1  2  1  0
  2  3  1  0
  3  4  1  0
  4  5  1  0
  5  6  2  0
  5  7  1  0
  7  8  1  0
  8  9  2  0
  9 10  1  0
 10 11  1  0
 11 12  2  0
 12 13  1  0
 13 14  2  0
 14 15  1  0
 15 16  2  0
 16  8  1  0
 16 11  1  0
M  END
$$$$
