
     RDKit          3D

 17 18  0  0  0  0  0  0  0  0999 V2000
   14.7890  -16.0463  -24.0458 C   0  0  0  0  0  0  0  0  0  0  0  0
   14.1054  -14.8340  -23.7546 O   0  0  0  0  0  0  0  0  0  0  0  0
   14.8812  -13.7490  -23.4538 C   0  0  0  0  0  0  0  0  0  0  0  0
   14.1802  -12.5799  -23.1943 C   0  0  0  0  0  0  0  0  0  0  0  0
   14.8600  -11.4043  -22.8690 C   0  0  0  0  0  0  0  0  0  0  0  0
   16.2650  -11.3606  -22.7812 C   0  0  0  0  0  0  0  0  0  0  0  0
   16.9558  -10.0623  -22.4040 C   0  0  0  0  0  0  0  0  0  0  0  0
   16.1819   -9.0405  -21.5466 C   0  0  0  0  0  0  0  0  0  0  0  0
   15.2734   -8.1944  -22.3225 N   0  0  0  0  0  0  0  0  0  0  0  0
   16.9869  -12.5398  -23.0805 C   0  0  0  0  0  0  0  0  0  0  0  0
   18.3827  -12.6714  -23.0891 N   0  0  0  0  0  0  0  0  0  0  0  0
   19.1510  -11.7683  -23.9464 C   0  0  0  0  0  0  0  0  0  0  0  0
   20.5262  -12.3878  -24.2031 C   0  0  0  0  0  0  0  0  0  0  0  0
   21.2358  -12.7103  -22.8875 C   0  0  0  0  0  0  0  0  0  0  0  0
   20.3597  -13.5882  -21.9936 C   0  0  0  0  0  0  0  0  0  0  0  0
   18.9756  -12.9712  -21.7824 C   0  0  0  0  0  0  0  0  0  0  0  0
   16.2724  -13.7194  -23.3959 C   0  0  0  0  0  0  0  0  0  0  0  0
  1  2  1  0
  2  3  1  0
  3  4  2  0
  4  5  1  0
  5  6  2  0
  6  7  1  0
  7  8  1  0
  8  9  1  0
  6 10  1  0
 10 11  1  0
 11 12  1  0
 12 13  1  0
 13 14  1  0
 14 15  1  0
 15 16  1  0
 10 17  2  0
 17  3  1  0
 16 11  1  0
M  END
$$$$
