
     RDKit          3D

 19 20  0  0  0  0  0  0  0  0999 V2000
    1.1092  -15.3358   53.1136 N   0  0  0  0  0  0  0  0  0  0  0  0
    1.6163  -15.8534   51.8481 C   0  0  0  0  0  0  0  0  0  0  0  0
    1.6463  -14.7745   50.7759 C   0  0  0  0  0  0  0  0  0  0  0  0
    0.2543  -14.3940   50.3157 C   0  0  0  0  0  0  0  0  0  0  0  0
   -0.5025  -15.2142   49.7920 O   0  0  0  0  0  0  0  0  0  0  0  0
   -0.1744  -12.9670   50.5055 C   0  0  0  0  0  0  0  0  0  0  0  0
   -0.6101  -12.6599   51.9113 C   0  0  0  0  0  0  0  0  0  0  0  0
    0.1834  -12.1839   52.7263 O   0  0  0  0  0  0  0  0  0  0  0  0
   -2.0403  -12.9758   52.2880 C   0  0  0  0  0  0  0  0  0  0  0  0
   -2.1324  -14.2816   53.0631 C   0  0  0  0  0  0  0  0  0  0  0  0
   -3.5526  -14.6681   53.3278 C   0  0  0  0  0  0  0  0  0  0  0  0
   -4.2993  -14.3482   54.4445 C   0  0  0  0  0  0  0  0  0  0  0  0
   -5.5496  -14.8845   54.2929 N   0  0  0  0  0  0  0  0  0  0  0  0
   -5.6413  -15.5495   53.0926 C   0  0  0  0  0  0  0  0  0  0  0  0
   -6.7182  -16.2385   52.5218 C   0  0  0  0  0  0  0  0  0  0  0  0
   -6.5190  -16.8288   51.2701 C   0  0  0  0  0  0  0  0  0  0  0  0
   -5.2918  -16.7327   50.6185 C   0  0  0  0  0  0  0  0  0  0  0  0
   -4.2256  -16.0399   51.2035 C   0  0  0  0  0  0  0  0  0  0  0  0
   -4.4008  -15.4350   52.4653 C   0  0  0  0  0  0  0  0  0  0  0  0
  1  2  1  0
  2  3  1  0
  3  4  1  0
  4  5  2  0
  4  6  1  0
  6  7  1  0
  7  8  2  0
  7  9  1  0
  9 10  1  0
 10 11  1  0
 11 12  2  0
 12 13  1  0
 13 14  1  0
 14 15  2  0
 15 16  1  0
 16 17  2  0
 17 18  1  0
 18 19  2  0
 19 11  1  0
 19 14  1  0
M  END
$$$$
