
     RDKit          3D

 19 20  0  0  0  0  0  0  0  0999 V2000
    8.0110   24.0493   -4.1492 N   0  0  0  0  0  0  0  0  0  0  0  0
    7.3717   25.3641   -4.1608 C   0  0  0  0  0  0  0  0  0  0  0  0
    6.7217   25.7111   -2.8286 C   0  0  0  0  0  0  0  0  0  0  0  0
    5.3925   25.0098   -2.6358 C   0  0  0  0  0  0  0  0  0  0  0  0
    5.2346   24.1929   -1.7253 O   0  0  0  0  0  0  0  0  0  0  0  0
    4.2793   25.3390   -3.6160 C   0  0  0  0  0  0  0  0  0  0  0  0
    2.9018   25.1445   -2.9966 C   0  0  0  0  0  0  0  0  0  0  0  0
    2.6321   26.1409   -1.8827 C   0  0  0  0  0  0  0  0  0  0  0  0
    3.3656   27.1142   -1.6946 O   0  0  0  0  0  0  0  0  0  0  0  0
    1.3982   25.8961   -1.0343 C   0  0  0  0  0  0  0  0  0  0  0  0
    0.1479   26.1797   -1.7959 C   0  0  0  0  0  0  0  0  0  0  0  0
   -0.3916   27.4268   -2.0375 C   0  0  0  0  0  0  0  0  0  0  0  0
   -1.5312   27.2676   -2.7770 N   0  0  0  0  0  0  0  0  0  0  0  0
   -1.7447   25.9391   -3.0403 C   0  0  0  0  0  0  0  0  0  0  0  0
   -2.7699   25.3206   -3.7655 C   0  0  0  0  0  0  0  0  0  0  0  0
   -2.7354   23.9249   -3.8804 C   0  0  0  0  0  0  0  0  0  0  0  0
   -1.7153   23.1846   -3.2915 C   0  0  0  0  0  0  0  0  0  0  0  0
   -0.7007   23.8192   -2.5645 C   0  0  0  0  0  0  0  0  0  0  0  0
   -0.7111   25.2266   -2.4343 C   0  0  0  0  0  0  0  0  0  0  0  0
  1  2  1  0
  2  3  1  0
  3  4  1  0
  4  5  2  0
  4  6  1  0
  6  7  1  0
  7  8  1  0
  8  9  2  0
  8 10  1  0
 10 11  1  0
 11 12  2  0
 12 13  1  0
 13 14  1  0
 14 15  2  0
 15 16  1  0
 16 17  2  0
 17 18  1  0
 18 19  2  0
 19 11  1  0
 19 14  1  0
M  END
$$$$
