
     RDKit          3D

 16 17  0  0  0  0  0  0  0  0999 V2000
    8.4929   -0.4361  -45.1445 N   0  0  0  0  0  0  0  0  0  0  0  0
    9.0545   -1.5269  -44.3593 C   0  0  0  0  0  0  0  0  0  0  0  0
    7.9581   -2.2145  -43.5489 C   0  0  0  0  0  0  0  0  0  0  0  0
    8.5406   -3.2967  -42.6488 C   0  0  0  0  0  0  0  0  0  0  0  0
    7.4731   -4.1852  -42.0406 C   0  0  0  0  0  0  0  0  0  0  0  0
    7.4244   -5.3848  -42.3277 O   0  0  0  0  0  0  0  0  0  0  0  0
    6.4974   -3.5609  -41.0599 C   0  0  0  0  0  0  0  0  0  0  0  0
    5.1916   -3.2175  -41.6979 C   0  0  0  0  0  0  0  0  0  0  0  0
    4.3247   -4.1034  -42.3099 C   0  0  0  0  0  0  0  0  0  0  0  0
    3.2398   -3.4070  -42.7646 N   0  0  0  0  0  0  0  0  0  0  0  0
    3.3674   -2.0744  -42.4533 C   0  0  0  0  0  0  0  0  0  0  0  0
    2.5051   -1.0029  -42.7161 C   0  0  0  0  0  0  0  0  0  0  0  0
    2.8930    0.2650  -42.2752 C   0  0  0  0  0  0  0  0  0  0  0  0
    4.0947    0.4506  -41.5976 C   0  0  0  0  0  0  0  0  0  0  0  0
    4.9444   -0.6323  -41.3419 C   0  0  0  0  0  0  0  0  0  0  0  0
    4.5798   -1.9234  -41.7785 C   0  0  0  0  0  0  0  0  0  0  0  0
  1  2  1  0
  2  3  1  0
  3  4  1  0
  4  5  1  0
  5  6  2  0
  5  7  1  0
  7  8  1  0
  8  9  2  0
  9 10  1  0
 10 11  1  0
 11 12  2  0
 12 13  1  0
 13 14  2  0
 14 15  1  0
 15 16  2  0
 16  8  1  0
 16 11  1  0
M  END
$$$$
