
     RDKit          3D

 27 30  0  0  0  0  0  0  0  0999 V2000
    1.4886  -18.5060   -5.4386 N   0  0  0  0  0  0  0  0  0  0  0  0
    1.0908  -17.4283   -6.1717 C   0  0  0  0  0  0  0  0  0  0  0  0
    1.3956  -16.2950   -5.8159 O   0  0  0  0  0  0  0  0  0  0  0  0
    0.2729  -17.6846   -7.3999 C   0  0  0  0  0  0  0  0  0  0  0  0
   -0.3398  -16.5467   -7.9613 C   0  0  0  0  0  0  0  0  0  0  0  0
   -1.1525  -16.6467   -9.0889 C   0  0  0  0  0  0  0  0  0  0  0  0
   -1.3702  -17.8883   -9.6694 C   0  0  0  0  0  0  0  0  0  0  0  0
   -0.7643  -19.0262   -9.1314 C   0  0  0  0  0  0  0  0  0  0  0  0
    0.0830  -18.9553   -8.0031 C   0  0  0  0  0  0  0  0  0  0  0  0
    0.7026  -20.1390   -7.4866 N   0  0  0  0  0  0  0  0  0  0  0  0
   -0.3267  -20.9923   -6.8482 C   0  0  0  0  0  0  0  0  0  0  0  0
    0.3628  -22.0271   -5.9578 C   0  0  0  0  0  0  0  0  0  0  0  0
    1.6972  -22.5139   -6.5236 C   0  0  0  0  0  0  0  0  0  0  0  0
    1.7710  -22.3389   -8.0371 C   0  0  0  0  0  0  0  0  0  0  0  0
    1.5238  -20.8822   -8.4975 C   0  0  0  0  0  0  0  0  0  0  0  0
    2.8260  -20.1306   -8.8446 C   0  0  0  0  0  0  0  0  0  0  0  0
    3.8784  -20.0893   -7.7385 C   0  0  0  0  0  0  0  0  0  0  0  0
    5.0349  -19.3354   -8.2045 N   0  0  0  0  0  0  0  0  0  0  0  0
    6.0474  -19.1776   -7.2469 C   0  0  0  0  0  0  0  0  0  0  0  0
    6.2839  -20.1353   -6.3086 N   0  0  0  0  0  0  0  0  0  0  0  0
    7.2807  -19.9406   -5.4162 C   0  0  0  0  0  0  0  0  0  0  0  0
    8.1114  -18.8844   -5.3023 N   0  0  0  0  0  0  0  0  0  0  0  0
    7.8351  -17.9699   -6.2418 C   0  0  0  0  0  0  0  0  0  0  0  0
    8.4605  -16.7723   -6.4319 N   0  0  0  0  0  0  0  0  0  0  0  0
    7.8572  -16.1549   -7.4940 C   0  0  0  0  0  0  0  0  0  0  0  0
    6.8840  -16.8840   -7.9988 N   0  0  0  0  0  0  0  0  0  0  0  0
    6.8608  -18.0274   -7.2222 C   0  0  0  0  0  0  0  0  0  0  0  0
  1  2  1  0
  2  3  2  0
  2  4  1  0
  4  5  2  0
  5  6  1  0
  6  7  2  0
  7  8  1  0
  8  9  2  0
  9 10  1  0
 10 11  1  0
 11 12  1  0
 12 13  1  0
 13 14  1  0
 14 15  1  0
 15 16  1  0
 16 17  1  0
 17 18  1  0
 18 19  1  0
 19 20  2  0
 20 21  1  0
 21 22  2  0
 22 23  1  0
 23 24  1  0
 24 25  1  0
 25 26  2  0
 26 27  1  0
  9  4  1  0
 15 10  1  0
 27 19  1  0
 27 23  2  0
M  END
$$$$
