
     RDKit          3D

 22 23  0  0  0  0  0  0  0  0999 V2000
   -6.2738  -12.9981  -16.2931 C   0  0  0  0  0  0  0  0  0  0  0  0
   -6.6187  -14.3354  -15.8331 N   0  0  0  0  0  0  0  0  0  0  0  0
   -8.0513  -14.4975  -15.5820 C   0  0  0  0  0  0  0  0  0  0  0  0
   -8.8687  -14.6740  -16.8694 C   0  0  0  0  0  0  0  0  0  0  0  0
  -10.3707  -14.8656  -16.5905 C   0  0  0  0  0  0  0  0  0  0  0  0
  -11.2675  -13.6424  -16.4560 C   0  0  0  0  0  0  0  0  0  0  0  0
  -10.6869  -12.3669  -16.2969 C   0  0  0  0  0  0  0  0  0  0  0  0
  -11.4588  -11.2105  -16.2290 C   0  0  0  0  0  0  0  0  0  0  0  0
  -12.8392  -11.2936  -16.3431 C   0  0  0  0  0  0  0  0  0  0  0  0
  -13.5641  -10.1374  -16.2073 O   0  0  0  0  0  0  0  0  0  0  0  0
  -13.5731   -9.4055  -17.4343 C   0  0  0  0  0  0  0  0  0  0  0  0
  -13.4633  -12.5430  -16.4742 C   0  0  0  0  0  0  0  0  0  0  0  0
  -14.9519  -12.5575  -16.5732 C   0  0  0  0  0  0  0  0  0  0  0  0
  -15.6066  -13.4693  -15.7904 N   0  0  0  0  0  0  0  0  0  0  0  0
  -15.5732  -11.8236  -17.3329 O   0  0  0  0  0  0  0  0  0  0  0  0
  -12.6918  -13.7492  -16.5160 C   0  0  0  0  0  0  0  0  0  0  0  0
  -13.3627  -14.9809  -16.6722 N   0  0  0  0  0  0  0  0  0  0  0  0
  -13.6783  -15.3047  -18.0764 C   0  0  0  0  0  0  0  0  0  0  0  0
  -14.1263  -16.7624  -18.2234 C   0  0  0  0  0  0  0  0  0  0  0  0
  -15.0005  -17.2018  -17.0531 C   0  0  0  0  0  0  0  0  0  0  0  0
  -14.3030  -17.0043  -15.7017 C   0  0  0  0  0  0  0  0  0  0  0  0
  -13.0637  -16.1079  -15.7907 C   0  0  0  0  0  0  0  0  0  0  0  0
  1  2  1  0
  2  3  1  0
  3  4  1  0
  4  5  1  0
  5  6  1  0
  6  7  2  0
  7  8  1  0
  8  9  2  0
  9 10  1  0
 10 11  1  0
  9 12  1  0
 12 13  1  0
 13 14  1  0
 13 15  2  0
 12 16  2  0
 16 17  1  0
 17 18  1  0
 18 19  1  0
 19 20  1  0
 20 21  1  0
 21 22  1  0
 16  6  1  0
 22 17  1  0
M  END
$$$$
