
     RDKit          3D

 22 24  0  0  0  0  0  0  0  0999 V2000
   13.1732   -2.8169  -14.6832 N   0  0  0  0  0  0  0  0  0  0  0  0
   13.1425   -3.4326  -16.0180 C   0  0  0  0  0  0  0  0  0  0  0  0
   14.5359   -3.4268  -16.6297 C   0  0  0  0  0  0  0  0  0  0  0  0
   15.3109   -2.4770  -16.5151 O   0  0  0  0  0  0  0  0  0  0  0  0
   14.9176   -4.5603  -17.4936 C   0  0  0  0  0  0  0  0  0  0  0  0
   15.0151   -4.2735  -18.8597 C   0  0  0  0  0  0  0  0  0  0  0  0
   15.4029   -5.2888  -19.7090 C   0  0  0  0  0  0  0  0  0  0  0  0
   15.6962   -6.5330  -19.2875 N   0  0  0  0  0  0  0  0  0  0  0  0
   15.6188   -6.7632  -17.9527 C   0  0  0  0  0  0  0  0  0  0  0  0
   15.2403   -5.8296  -16.9825 C   0  0  0  0  0  0  0  0  0  0  0  0
   15.2077   -6.1256  -15.6070 N   0  0  0  0  0  0  0  0  0  0  0  0
   14.0002   -6.8485  -15.1771 C   0  0  0  0  0  0  0  0  0  0  0  0
   14.1087   -8.3570  -15.3714 C   0  0  0  0  0  0  0  0  0  0  0  0
   15.4660   -8.9121  -14.9643 C   0  0  0  0  0  0  0  0  0  0  0  0
   16.2900   -7.8875  -14.1968 C   0  0  0  0  0  0  0  0  0  0  0  0
   16.5069   -6.5647  -14.9950 C   0  0  0  0  0  0  0  0  0  0  0  0
   17.2169   -5.6449  -14.0733 N   0  0  0  0  0  0  0  0  0  0  0  0
   17.0665   -4.2360  -14.4729 C   0  0  0  0  0  0  0  0  0  0  0  0
   18.0479   -3.2756  -13.7817 C   0  0  0  0  0  0  0  0  0  0  0  0
   18.5639   -3.8467  -12.4708 C   0  0  0  0  0  0  0  0  0  0  0  0
   19.2148   -5.2108  -12.7004 C   0  0  0  0  0  0  0  0  0  0  0  0
   18.6424   -5.9554  -13.9156 C   0  0  0  0  0  0  0  0  0  0  0  0
  1  2  1  0
  2  3  1  0
  3  4  2  0
  3  5  1  0
  5  6  2  0
  6  7  1  0
  7  8  2  0
  8  9  1  0
  9 10  2  0
 10 11  1  0
 11 12  1  0
 12 13  1  0
 13 14  1  0
 14 15  1  0
 15 16  1  0
 16 17  1  0
 17 18  1  0
 18 19  1  0
 19 20  1  0
 20 21  1  0
 21 22  1  0
 10  5  1  0
 16 11  1  0
 22 17  1  0
M  END
$$$$
