
     RDKit          3D

 30 33  0  0  0  0  0  0  0  0999 V2000
   14.0130  -10.7896  -19.2247 N   0  0  0  0  0  0  0  0  0  0  0  0
   14.4867  -11.3591  -20.4390 C   0  0  0  0  0  0  0  0  0  0  0  0
   14.4848  -12.7384  -20.6083 C   0  0  0  0  0  0  0  0  0  0  0  0
   14.8699  -13.2444  -21.8382 C   0  0  0  0  0  0  0  0  0  0  0  0
   15.2296  -12.4793  -22.8930 N   0  0  0  0  0  0  0  0  0  0  0  0
   15.1839  -11.1364  -22.7078 C   0  0  0  0  0  0  0  0  0  0  0  0
   14.8265  -10.5124  -21.5123 C   0  0  0  0  0  0  0  0  0  0  0  0
   14.7706   -9.0997  -21.3077 N   0  0  0  0  0  0  0  0  0  0  0  0
   13.6687   -8.5321  -22.1031 C   0  0  0  0  0  0  0  0  0  0  0  0
   12.4429   -9.1338  -21.7069 O   0  0  0  0  0  0  0  0  0  0  0  0
   13.5368   -7.0314  -21.8471 C   0  0  0  0  0  0  0  0  0  0  0  0
   14.8429   -6.3100  -22.1264 C   0  0  0  0  0  0  0  0  0  0  0  0
   15.9556   -6.9239  -21.2898 C   0  0  0  0  0  0  0  0  0  0  0  0
   16.0986   -8.4401  -21.5395 C   0  0  0  0  0  0  0  0  0  0  0  0
   17.1892   -8.9674  -20.5617 C   0  0  0  0  0  0  0  0  0  0  0  0
   17.8857  -10.1559  -21.0222 N   0  0  0  0  0  0  0  0  0  0  0  0
   18.8845  -10.0758  -21.9695 C   0  0  0  0  0  0  0  0  0  0  0  0
   19.1788   -9.0440  -22.5595 O   0  0  0  0  0  0  0  0  0  0  0  0
   19.5803  -11.3506  -22.2457 C   0  0  0  0  0  0  0  0  0  0  0  0
   18.8386  -12.2900  -22.9755 C   0  0  0  0  0  0  0  0  0  0  0  0
   19.4425  -13.4775  -23.3223 C   0  0  0  0  0  0  0  0  0  0  0  0
   20.7105  -13.7749  -22.9982 N   0  0  0  0  0  0  0  0  0  0  0  0
   21.4000  -12.8317  -22.3017 C   0  0  0  0  0  0  0  0  0  0  0  0
   20.9194  -11.5854  -21.8728 C   0  0  0  0  0  0  0  0  0  0  0  0
   21.7149  -10.7008  -21.1455 N   0  0  0  0  0  0  0  0  0  0  0  0
   21.1397  -10.0181  -19.9762 C   0  0  0  0  0  0  0  0  0  0  0  0
   22.2074   -9.6723  -18.9335 C   0  0  0  0  0  0  0  0  0  0  0  0
   23.1435  -10.8502  -18.6806 C   0  0  0  0  0  0  0  0  0  0  0  0
   23.7516  -11.4057  -19.9739 C   0  0  0  0  0  0  0  0  0  0  0  0
   23.1764  -10.7473  -21.2265 C   0  0  0  0  0  0  0  0  0  0  0  0
  1  2  1  0
  2  3  2  0
  3  4  1  0
  4  5  2  0
  5  6  1  0
  6  7  2  0
  7  8  1  0
  8  9  1  0
  9 10  1  0
  9 11  1  0
 11 12  1  0
 12 13  1  0
 13 14  1  0
 14 15  1  0
 15 16  1  0
 16 17  1  0
 17 18  2  0
 17 19  1  0
 19 20  2  0
 20 21  1  0
 21 22  2  0
 22 23  1  0
 23 24  2  0
 24 25  1  0
 25 26  1  0
 26 27  1  0
 27 28  1  0
 28 29  1  0
 29 30  1  0
  7  2  1  0
 14  8  1  0
 24 19  1  0
 30 25  1  0
M  END
$$$$
