
     RDKit          3D

 19 20  0  0  0  0  0  0  0  0999 V2000
  -19.9619    5.3282    9.4833 C   0  0  0  0  0  0  0  0  0  0  0  0
  -19.2416    5.3348    8.2159 N   0  0  0  0  0  0  0  0  0  0  0  0
  -17.8732    4.7903    8.3513 C   0  0  0  0  0  0  0  0  0  0  0  0
  -17.8380    3.2437    8.4840 C   0  0  0  0  0  0  0  0  0  0  0  0
  -16.3974    2.7190    8.4886 C   0  0  0  0  0  0  0  0  0  0  0  0
  -15.7746    2.7901    9.8711 C   0  0  0  0  0  0  0  0  0  0  0  0
  -16.1510    3.6137   10.7130 O   0  0  0  0  0  0  0  0  0  0  0  0
  -14.6987    1.7727   10.2041 C   0  0  0  0  0  0  0  0  0  0  0  0
  -13.5806    1.7648    9.2150 C   0  0  0  0  0  0  0  0  0  0  0  0
  -13.2808    0.7519    8.3236 C   0  0  0  0  0  0  0  0  0  0  0  0
  -12.1606    1.1157    7.6226 N   0  0  0  0  0  0  0  0  0  0  0  0
  -11.7407    2.3648    8.0095 C   0  0  0  0  0  0  0  0  0  0  0  0
  -10.6619    3.1345    7.5569 C   0  0  0  0  0  0  0  0  0  0  0  0
  -10.4614    4.3825    8.1536 C   0  0  0  0  0  0  0  0  0  0  0  0
  -11.3047    4.8387    9.1637 C   0  0  0  0  0  0  0  0  0  0  0  0
  -12.3801    4.0564    9.6036 C   0  0  0  0  0  0  0  0  0  0  0  0
  -12.6063    2.7948    9.0154 C   0  0  0  0  0  0  0  0  0  0  0  0
  -18.5392    2.6987    7.3441 O   0  0  0  0  0  0  0  0  0  0  0  0
  -19.1592    1.4465    7.6158 C   0  0  0  0  0  0  0  0  0  0  0  0
  1  2  1  0
  2  3  1  0
  3  4  1  0
  4  5  1  0
  5  6  1  0
  6  7  2  0
  6  8  1  0
  8  9  1  0
  9 10  2  0
 10 11  1  0
 11 12  1  0
 12 13  2  0
 13 14  1  0
 14 15  2  0
 15 16  1  0
 16 17  2  0
  4 18  1  0
 18 19  1  0
 17  9  1  0
 17 12  1  0
M  END
$$$$
