
     RDKit          3D

 19 20  0  0  0  0  0  0  0  0999 V2000
  -12.8222   17.6327  -30.9106 C   0  0  0  0  0  0  0  0  0  0  0  0
  -13.2886   16.4346  -31.5874 N   0  0  0  0  0  0  0  0  0  0  0  0
  -12.4072   15.2881  -31.3020 C   0  0  0  0  0  0  0  0  0  0  0  0
  -12.7506   14.1471  -32.2589 C   0  0  0  0  0  0  0  0  0  0  0  0
  -12.9484   14.3404  -33.4620 O   0  0  0  0  0  0  0  0  0  0  0  0
  -12.7242   12.7487  -31.7559 C   0  0  0  0  0  0  0  0  0  0  0  0
  -12.0043   11.8293  -32.5377 C   0  0  0  0  0  0  0  0  0  0  0  0
  -11.8799   10.4989  -32.1375 C   0  0  0  0  0  0  0  0  0  0  0  0
  -12.4838   10.0764  -30.9585 C   0  0  0  0  0  0  0  0  0  0  0  0
  -12.4488    8.8074  -30.4479 O   0  0  0  0  0  0  0  0  0  0  0  0
  -11.7454    7.8283  -31.2026 C   0  0  0  0  0  0  0  0  0  0  0  0
  -13.2174   10.9936  -30.1926 C   0  0  0  0  0  0  0  0  0  0  0  0
  -13.3644   12.3433  -30.5667 C   0  0  0  0  0  0  0  0  0  0  0  0
  -14.1658   13.2230  -29.8202 N   0  0  0  0  0  0  0  0  0  0  0  0
  -15.4665   13.5001  -30.4692 C   0  0  0  0  0  0  0  0  0  0  0  0
  -16.3630   14.3121  -29.5392 C   0  0  0  0  0  0  0  0  0  0  0  0
  -16.6560   13.5569  -28.2421 C   0  0  0  0  0  0  0  0  0  0  0  0
  -15.5222   12.6116  -27.8408 C   0  0  0  0  0  0  0  0  0  0  0  0
  -14.1738   13.1081  -28.3515 C   0  0  0  0  0  0  0  0  0  0  0  0
  1  2  1  0
  2  3  1  0
  3  4  1  0
  4  5  2  0
  4  6  1  0
  6  7  2  0
  7  8  1  0
  8  9  2  0
  9 10  1  0
 10 11  1  0
  9 12  1  0
 12 13  2  0
 13 14  1  0
 14 15  1  0
 15 16  1  0
 16 17  1  0
 17 18  1  0
 18 19  1  0
 13  6  1  0
 19 14  1  0
M  END
$$$$
