
     RDKit          3D

 23 25  0  0  0  0  0  0  0  0999 V2000
  -18.9147  -10.3340   -0.1590 C   0  0  0  0  0  0  0  0  0  0  0  0
  -18.3796   -9.0297    0.2138 N   0  0  0  0  0  0  0  0  0  0  0  0
  -17.3160   -8.5871   -0.6976 C   0  0  0  0  0  0  0  0  0  0  0  0
  -17.7741   -8.1405   -2.1025 C   0  0  0  0  0  0  0  0  0  0  0  0
  -18.6511   -6.8788   -2.0375 C   0  0  0  0  0  0  0  0  0  0  0  0
  -19.3181   -6.5868   -3.3536 C   0  0  0  0  0  0  0  0  0  0  0  0
  -18.8678   -5.7152   -4.3258 C   0  0  0  0  0  0  0  0  0  0  0  0
  -19.7518   -5.7388   -5.3688 N   0  0  0  0  0  0  0  0  0  0  0  0
  -20.7740   -6.6197   -5.1055 C   0  0  0  0  0  0  0  0  0  0  0  0
  -21.8848   -6.9688   -5.8812 C   0  0  0  0  0  0  0  0  0  0  0  0
  -22.7770   -7.9054   -5.3515 C   0  0  0  0  0  0  0  0  0  0  0  0
  -22.5651   -8.4670   -4.0957 C   0  0  0  0  0  0  0  0  0  0  0  0
  -21.4480   -8.1077   -3.3342 C   0  0  0  0  0  0  0  0  0  0  0  0
  -20.5323   -7.1642   -3.8449 C   0  0  0  0  0  0  0  0  0  0  0  0
  -16.5860   -7.8298   -2.8536 O   0  0  0  0  0  0  0  0  0  0  0  0
  -16.2807   -8.8246   -3.8225 C   0  0  0  0  0  0  0  0  0  0  0  0
  -14.9357   -8.6226   -4.3596 N   0  0  0  0  0  0  0  0  0  0  0  0
  -14.8130   -7.3087   -5.0023 C   0  0  0  0  0  0  0  0  0  0  0  0
  -13.3621   -7.0797   -5.4278 C   0  0  0  0  0  0  0  0  0  0  0  0
  -12.8863   -8.1488   -6.3983 C   0  0  0  0  0  0  0  0  0  0  0  0
  -13.2121   -9.5242   -5.8624 C   0  0  0  0  0  0  0  0  0  0  0  0
  -12.4385  -10.4700   -6.0176 O   0  0  0  0  0  0  0  0  0  0  0  0
  -14.6082   -9.7140   -5.2926 C   0  0  0  0  0  0  0  0  0  0  0  0
  1  2  1  0
  2  3  1  0
  3  4  1  0
  4  5  1  0
  5  6  1  0
  6  7  2  0
  7  8  1  0
  8  9  1  0
  9 10  2  0
 10 11  1  0
 11 12  2  0
 12 13  1  0
 13 14  2  0
  4 15  1  0
 15 16  1  0
 16 17  1  0
 17 18  1  0
 18 19  1  0
 19 20  1  0
 20 21  1  0
 21 22  2  0
 21 23  1  0
 14  6  1  0
 23 17  1  0
 14  9  1  0
M  END
$$$$
