
     RDKit          3D

 31 34  0  0  0  0  0  0  0  0999 V2000
  -34.0854  -10.2440    6.0395 N   0  0  0  0  0  0  0  0  0  0  0  0
  -32.8443   -9.7269    5.4648 C   0  0  0  0  0  0  0  0  0  0  0  0
  -32.4707  -10.4416    4.1844 C   0  0  0  0  0  0  0  0  0  0  0  0
  -33.2258  -10.1688    3.0234 C   0  0  0  0  0  0  0  0  0  0  0  0
  -32.9214  -10.7726    1.8033 C   0  0  0  0  0  0  0  0  0  0  0  0
  -31.8575  -11.6583    1.7368 C   0  0  0  0  0  0  0  0  0  0  0  0
  -31.5156  -12.2756    0.5707 O   0  0  0  0  0  0  0  0  0  0  0  0
  -31.0991  -11.9435    2.8669 C   0  0  0  0  0  0  0  0  0  0  0  0
  -31.3833  -11.3388    4.1070 C   0  0  0  0  0  0  0  0  0  0  0  0
  -30.6132  -11.6310    5.2429 N   0  0  0  0  0  0  0  0  0  0  0  0
  -29.1331  -11.4823    5.1369 C   0  0  0  0  0  0  0  0  0  0  0  0
  -28.6811  -10.2267    4.3154 C   0  0  0  0  0  0  0  0  0  0  0  0
  -27.2235  -10.1430    4.1212 N   0  0  0  0  0  0  0  0  0  0  0  0
  -26.6264  -11.1633    3.3383 C   0  0  0  0  0  0  0  0  0  0  0  0
  -27.1431  -11.5455    2.0998 C   0  0  0  0  0  0  0  0  0  0  0  0
  -26.5129  -12.5608    1.4002 C   0  0  0  0  0  0  0  0  0  0  0  0
  -25.4108  -13.2044    1.8341 N   0  0  0  0  0  0  0  0  0  0  0  0
  -24.9049  -12.7942    3.0216 C   0  0  0  0  0  0  0  0  0  0  0  0
  -25.4466  -11.7819    3.8179 C   0  0  0  0  0  0  0  0  0  0  0  0
  -24.8898  -11.3497    5.0455 N   0  0  0  0  0  0  0  0  0  0  0  0
  -24.0612  -10.1341    4.8732 C   0  0  0  0  0  0  0  0  0  0  0  0
  -22.7819  -10.1883    5.7084 C   0  0  0  0  0  0  0  0  0  0  0  0
  -23.0542  -10.5985    7.1536 C   0  0  0  0  0  0  0  0  0  0  0  0
  -24.0068  -11.7913    7.2662 C   0  0  0  0  0  0  0  0  0  0  0  0
  -24.3366  -12.4009    5.9053 C   0  0  0  0  0  0  0  0  0  0  0  0
  -28.5463  -11.3575    6.5709 C   0  0  0  0  0  0  0  0  0  0  0  0
  -29.2422  -12.2090    7.6295 C   0  0  0  0  0  0  0  0  0  0  0  0
  -30.0081  -13.3483    6.9913 C   0  0  0  0  0  0  0  0  0  0  0  0
  -30.6107  -14.1476    8.0168 O   0  0  0  0  0  0  0  0  0  0  0  0
  -31.0828  -12.7928    6.0246 C   0  0  0  0  0  0  0  0  0  0  0  0
  -31.4785  -13.8902    5.2044 O   0  0  0  0  0  0  0  0  0  0  0  0
  1  2  1  0
  2  3  1  0
  3  4  2  0
  4  5  1  0
  5  6  2  0
  6  7  1  0
  6  8  1  0
  8  9  2  0
  9 10  1  0
 10 11  1  0
 11 12  1  0
 12 13  1  0
 13 14  1  0
 14 15  2  0
 15 16  1  0
 16 17  2  0
 17 18  1  0
 18 19  2  0
 19 20  1  0
 20 21  1  0
 21 22  1  0
 22 23  1  0
 23 24  1  0
 24 25  1  0
 11 26  1  0
 26 27  1  0
 27 28  1  0
 28 29  1  0
 28 30  1  0
 30 31  1  0
  9  3  1  0
 30 10  1  0
 19 14  1  0
 25 20  1  0
M  END
$$$$
