
     RDKit          3D

 19 20  0  0  0  0  0  0  0  0999 V2000
   13.6555   13.6591   14.2076 N   0  0  0  0  0  0  0  0  0  0  0  0
   12.5851   14.4424   13.5903 C   0  0  0  0  0  0  0  0  0  0  0  0
   13.0157   15.8604   13.2243 C   0  0  0  0  0  0  0  0  0  0  0  0
   13.9624   15.9132   12.0400 C   0  0  0  0  0  0  0  0  0  0  0  0
   14.1045   15.0072   11.2253 O   0  0  0  0  0  0  0  0  0  0  0  0
   14.6701   17.1930   11.8125 C   0  0  0  0  0  0  0  0  0  0  0  0
   14.2647   17.9276   10.6872 C   0  0  0  0  0  0  0  0  0  0  0  0
   14.7909   19.1949   10.4633 C   0  0  0  0  0  0  0  0  0  0  0  0
   15.7077   19.7174   11.3684 C   0  0  0  0  0  0  0  0  0  0  0  0
   16.3454   21.2963   11.1144 Cl  0  0  0  0  0  0  0  0  0  0  0  0
   16.1270   18.9732   12.4791 C   0  0  0  0  0  0  0  0  0  0  0  0
   15.6435   17.6761   12.7190 C   0  0  0  0  0  0  0  0  0  0  0  0
   16.1081   16.8948   13.7845 N   0  0  0  0  0  0  0  0  0  0  0  0
   16.5199   17.5176   15.0495 C   0  0  0  0  0  0  0  0  0  0  0  0
   18.0327   17.7141   15.1263 C   0  0  0  0  0  0  0  0  0  0  0  0
   18.7739   16.4070   14.9022 C   0  0  0  0  0  0  0  0  0  0  0  0
   18.3346   15.7947   13.5951 C   0  0  0  0  0  0  0  0  0  0  0  0
   19.1545   15.3351   12.8000 O   0  0  0  0  0  0  0  0  0  0  0  0
   16.8321   15.6576   13.3935 C   0  0  0  0  0  0  0  0  0  0  0  0
  1  2  1  0
  2  3  1  0
  3  4  1  0
  4  5  2  0
  4  6  1  0
  6  7  2  0
  7  8  1  0
  8  9  2  0
  9 10  1  0
  9 11  1  0
 11 12  2  0
 12 13  1  0
 13 14  1  0
 14 15  1  0
 15 16  1  0
 16 17  1  0
 17 18  2  0
 17 19  1  0
 12  6  1  0
 19 13  1  0
M  END
$$$$
