
     RDKit          3D

 16 17  0  0  0  0  0  0  0  0999 V2000
   24.8144  -18.1575   -1.9934 N   0  0  0  0  0  0  0  0  0  0  0  0
   25.3760  -19.2483   -1.2083 C   0  0  0  0  0  0  0  0  0  0  0  0
   24.2796  -19.9359   -0.3978 C   0  0  0  0  0  0  0  0  0  0  0  0
   24.8621  -21.0180    0.5023 C   0  0  0  0  0  0  0  0  0  0  0  0
   23.7946  -21.9066    1.1104 C   0  0  0  0  0  0  0  0  0  0  0  0
   23.7459  -23.1062    0.8234 O   0  0  0  0  0  0  0  0  0  0  0  0
   22.8189  -21.2823    2.0912 C   0  0  0  0  0  0  0  0  0  0  0  0
   21.5131  -20.9389    1.4532 C   0  0  0  0  0  0  0  0  0  0  0  0
   20.6462  -21.8248    0.8411 C   0  0  0  0  0  0  0  0  0  0  0  0
   19.5613  -21.1284    0.3865 N   0  0  0  0  0  0  0  0  0  0  0  0
   19.6889  -19.7957    0.6978 C   0  0  0  0  0  0  0  0  0  0  0  0
   18.8266  -18.7243    0.4350 C   0  0  0  0  0  0  0  0  0  0  0  0
   19.2145  -17.4563    0.8758 C   0  0  0  0  0  0  0  0  0  0  0  0
   20.4162  -17.2708    1.5535 C   0  0  0  0  0  0  0  0  0  0  0  0
   21.2659  -18.3536    1.8091 C   0  0  0  0  0  0  0  0  0  0  0  0
   20.9013  -19.6447    1.3725 C   0  0  0  0  0  0  0  0  0  0  0  0
  1  2  1  0
  2  3  1  0
  3  4  1  0
  4  5  1  0
  5  6  2  0
  5  7  1  0
  7  8  1  0
  8  9  2  0
  9 10  1  0
 10 11  1  0
 11 12  2  0
 12 13  1  0
 13 14  2  0
 14 15  1  0
 15 16  2  0
 16  8  1  0
 16 11  1  0
M  END
$$$$
