
     RDKit          3D

 28 31  0  0  0  0  0  0  0  0999 V2000
   -7.5660   -7.4191  -17.6304 N   0  0  0  0  0  0  0  0  0  0  0  0
   -7.3232   -6.0795  -17.4652 C   0  0  0  0  0  0  0  0  0  0  0  0
   -7.5066   -5.2897  -18.3817 O   0  0  0  0  0  0  0  0  0  0  0  0
   -6.8500   -5.6704  -16.1158 C   0  0  0  0  0  0  0  0  0  0  0  0
   -7.5931   -6.1034  -15.0049 C   0  0  0  0  0  0  0  0  0  0  0  0
   -7.2023   -5.7458  -13.7162 C   0  0  0  0  0  0  0  0  0  0  0  0
   -6.0761   -4.9501  -13.5331 C   0  0  0  0  0  0  0  0  0  0  0  0
   -5.3357   -4.5139  -14.6360 C   0  0  0  0  0  0  0  0  0  0  0  0
   -5.6965   -4.8719  -15.9486 C   0  0  0  0  0  0  0  0  0  0  0  0
   -4.9432   -4.4414  -17.0617 N   0  0  0  0  0  0  0  0  0  0  0  0
   -5.4054   -3.0784  -17.4572 C   0  0  0  0  0  0  0  0  0  0  0  0
   -4.7104   -2.6325  -18.7305 C   0  0  0  0  0  0  0  0  0  0  0  0
   -4.8330   -1.4931  -19.1816 O   0  0  0  0  0  0  0  0  0  0  0  0
   -3.8690   -3.6750  -19.4135 C   0  0  0  0  0  0  0  0  0  0  0  0
   -2.8689   -4.2471  -18.4161 C   0  0  0  0  0  0  0  0  0  0  0  0
   -3.4618   -4.5763  -17.0161 C   0  0  0  0  0  0  0  0  0  0  0  0
   -3.0086   -6.0072  -16.5774 C   0  0  0  0  0  0  0  0  0  0  0  0
   -1.5493   -6.2189  -16.5217 N   0  0  0  0  0  0  0  0  0  0  0  0
   -0.9476   -5.5656  -15.3520 C   0  0  0  0  0  0  0  0  0  0  0  0
    0.5385   -5.4610  -15.4789 C   0  0  0  0  0  0  0  0  0  0  0  0
    1.2668   -4.3757  -15.2863 N   0  0  0  0  0  0  0  0  0  0  0  0
    2.5680   -4.7550  -15.5111 C   0  0  0  0  0  0  0  0  0  0  0  0
    3.7466   -3.9963  -15.4636 C   0  0  0  0  0  0  0  0  0  0  0  0
    4.9663   -4.6342  -15.7313 C   0  0  0  0  0  0  0  0  0  0  0  0
    5.0104   -5.9976  -16.0390 C   0  0  0  0  0  0  0  0  0  0  0  0
    3.8433   -6.7688  -16.0965 C   0  0  0  0  0  0  0  0  0  0  0  0
    2.6430   -6.1083  -15.8247 C   0  0  0  0  0  0  0  0  0  0  0  0
    1.3392   -6.5314  -15.8019 N   0  0  0  0  0  0  0  0  0  0  0  0
  1  2  1  0
  2  3  2  0
  2  4  1  0
  4  5  2  0
  5  6  1  0
  6  7  2  0
  7  8  1  0
  8  9  2  0
  9 10  1  0
 10 11  1  0
 11 12  1  0
 12 13  2  0
 12 14  1  0
 14 15  1  0
 15 16  1  0
 16 17  1  0
 17 18  1  0
 18 19  1  0
 19 20  1  0
 20 21  2  0
 21 22  1  0
 22 23  2  0
 23 24  1  0
 24 25  2  0
 25 26  1  0
 26 27  2  0
 27 28  1  0
  9  4  1  0
 16 10  1  0
 28 20  1  0
 27 22  1  0
M  END
$$$$
