
     RDKit          3D

 27 29  0  0  0  0  0  0  0  0999 V2000
   -7.7005    9.7530    5.2823 N   0  0  0  0  0  0  0  0  0  0  0  0
   -6.7436    9.7368    6.3174 C   0  0  0  0  0  0  0  0  0  0  0  0
   -6.9095    8.8133    7.3549 C   0  0  0  0  0  0  0  0  0  0  0  0
   -6.0466    8.8474    8.4371 C   0  0  0  0  0  0  0  0  0  0  0  0
   -5.0599    9.7497    8.5751 N   0  0  0  0  0  0  0  0  0  0  0  0
   -4.9546   10.6774    7.5939 C   0  0  0  0  0  0  0  0  0  0  0  0
   -5.7680   10.7470    6.4542 C   0  0  0  0  0  0  0  0  0  0  0  0
   -5.5940   11.8133    5.5540 N   0  0  0  0  0  0  0  0  0  0  0  0
   -6.6278   12.8356    5.6278 C   0  0  0  0  0  0  0  0  0  0  0  0
   -5.9324   14.0632    5.7700 O   0  0  0  0  0  0  0  0  0  0  0  0
   -7.5391   12.9219    4.4151 C   0  0  0  0  0  0  0  0  0  0  0  0
   -6.7982   12.6139    3.1429 C   0  0  0  0  0  0  0  0  0  0  0  0
   -7.3972   12.4505    2.0782 O   0  0  0  0  0  0  0  0  0  0  0  0
   -5.3009   12.5364    3.2058 C   0  0  0  0  0  0  0  0  0  0  0  0
   -4.9459   11.4995    4.2678 C   0  0  0  0  0  0  0  0  0  0  0  0
   -3.4185   11.3633    4.4414 C   0  0  0  0  0  0  0  0  0  0  0  0
   -2.6950   12.6710    4.7655 C   0  0  0  0  0  0  0  0  0  0  0  0
   -1.3102   12.4329    5.1286 N   0  0  0  0  0  0  0  0  0  0  0  0
   -0.9485   12.2228    6.4444 C   0  0  0  0  0  0  0  0  0  0  0  0
   -1.7380   12.2845    7.3795 O   0  0  0  0  0  0  0  0  0  0  0  0
    0.4759   11.8712    6.6939 C   0  0  0  0  0  0  0  0  0  0  0  0
    1.5108   12.3269    5.8659 C   0  0  0  0  0  0  0  0  0  0  0  0
    2.8348   11.9721    6.1441 C   0  0  0  0  0  0  0  0  0  0  0  0
    3.1236   11.1714    7.2493 C   0  0  0  0  0  0  0  0  0  0  0  0
    4.7538   10.7378    7.5854 Cl  0  0  0  0  0  0  0  0  0  0  0  0
    2.1017   10.7267    8.0860 C   0  0  0  0  0  0  0  0  0  0  0  0
    0.7782   11.0808    7.8113 C   0  0  0  0  0  0  0  0  0  0  0  0
  1  2  1  0
  2  3  2  0
  3  4  1  0
  4  5  2  0
  5  6  1  0
  6  7  2  0
  7  8  1  0
  8  9  1  0
  9 10  1  0
  9 11  1  0
 11 12  1  0
 12 13  2  0
 12 14  1  0
 14 15  1  0
 15 16  1  0
 16 17  1  0
 17 18  1  0
 18 19  1  0
 19 20  2  0
 19 21  1  0
 21 22  2  0
 22 23  1  0
 23 24  2  0
 24 25  1  0
 24 26  1  0
 26 27  2  0
  7  2  1  0
 15  8  1  0
 27 21  1  0
M  END
$$$$
