
     RDKit          3D

 29 32  0  0  0  0  0  0  0  0999 V2000
   -4.4016    9.3467   -4.4757 N   0  0  0  0  0  0  0  0  0  0  0  0
   -3.1205    9.6463   -5.1329 C   0  0  0  0  0  0  0  0  0  0  0  0
   -2.1948    8.4376   -5.0240 C   0  0  0  0  0  0  0  0  0  0  0  0
   -2.2429    7.6577   -4.0659 O   0  0  0  0  0  0  0  0  0  0  0  0
   -1.1881    8.1906   -6.0964 C   0  0  0  0  0  0  0  0  0  0  0  0
   -0.9261    6.8442   -6.3925 C   0  0  0  0  0  0  0  0  0  0  0  0
    0.0207    6.5465   -7.3553 C   0  0  0  0  0  0  0  0  0  0  0  0
    0.7177    7.4841   -8.0244 N   0  0  0  0  0  0  0  0  0  0  0  0
    0.4625    8.7787   -7.7019 C   0  0  0  0  0  0  0  0  0  0  0  0
   -0.4839    9.2123   -6.7592 C   0  0  0  0  0  0  0  0  0  0  0  0
   -0.6894   10.5821   -6.4502 N   0  0  0  0  0  0  0  0  0  0  0  0
   -1.2176   11.2927   -7.6530 C   0  0  0  0  0  0  0  0  0  0  0  0
   -1.5641   12.7293   -7.2983 C   0  0  0  0  0  0  0  0  0  0  0  0
   -2.6172   13.2636   -7.6440 O   0  0  0  0  0  0  0  0  0  0  0  0
   -0.4761   13.5007   -6.5957 C   0  0  0  0  0  0  0  0  0  0  0  0
    0.0590   12.6884   -5.4234 C   0  0  0  0  0  0  0  0  0  0  0  0
    0.5057   11.2679   -5.8512 C   0  0  0  0  0  0  0  0  0  0  0  0
    1.0791   10.5078   -4.6128 C   0  0  0  0  0  0  0  0  0  0  0  0
    2.2788   11.1737   -4.0816 N   0  0  0  0  0  0  0  0  0  0  0  0
    3.3296   10.2255   -3.6955 C   0  0  0  0  0  0  0  0  0  0  0  0
    3.9810    9.6610   -4.9208 C   0  0  0  0  0  0  0  0  0  0  0  0
    3.8314    8.3771   -5.4121 C   0  0  0  0  0  0  0  0  0  0  0  0
    4.5746    8.2592   -6.5572 N   0  0  0  0  0  0  0  0  0  0  0  0
    5.2270    9.4378   -6.8252 C   0  0  0  0  0  0  0  0  0  0  0  0
    6.0875    9.7722   -7.8799 C   0  0  0  0  0  0  0  0  0  0  0  0
    6.6139   11.0675   -7.8989 C   0  0  0  0  0  0  0  0  0  0  0  0
    6.2948   11.9887   -6.9001 C   0  0  0  0  0  0  0  0  0  0  0  0
    5.4287   11.6366   -5.8555 C   0  0  0  0  0  0  0  0  0  0  0  0
    4.8824   10.3363   -5.8128 C   0  0  0  0  0  0  0  0  0  0  0  0
  1  2  1  0
  2  3  1  0
  3  4  2  0
  3  5  1  0
  5  6  2  0
  6  7  1  0
  7  8  2  0
  8  9  1  0
  9 10  2  0
 10 11  1  0
 11 12  1  0
 12 13  1  0
 13 14  2  0
 13 15  1  0
 15 16  1  0
 16 17  1  0
 17 18  1  0
 18 19  1  0
 19 20  1  0
 20 21  1  0
 21 22  2  0
 22 23  1  0
 23 24  1  0
 24 25  2  0
 25 26  1  0
 26 27  2  0
 27 28  1  0
 28 29  2  0
 10  5  1  0
 17 11  1  0
 29 21  1  0
 29 24  1  0
M  END
$$$$
