
     RDKit          3D

 19 20  0  0  0  0  0  0  0  0999 V2000
   10.5797  -14.6956    1.9048 N   0  0  0  0  0  0  0  0  0  0  0  0
   11.0867  -15.2133    0.6393 C   0  0  0  0  0  0  0  0  0  0  0  0
   11.1167  -14.1343   -0.4329 C   0  0  0  0  0  0  0  0  0  0  0  0
    9.7247  -13.7539   -0.8931 C   0  0  0  0  0  0  0  0  0  0  0  0
    8.9679  -14.5741   -1.4168 O   0  0  0  0  0  0  0  0  0  0  0  0
    9.2960  -12.3269   -0.7033 C   0  0  0  0  0  0  0  0  0  0  0  0
    8.8603  -12.0198    0.7025 C   0  0  0  0  0  0  0  0  0  0  0  0
    9.6538  -11.5437    1.5174 O   0  0  0  0  0  0  0  0  0  0  0  0
    7.4301  -12.3357    1.0792 C   0  0  0  0  0  0  0  0  0  0  0  0
    7.3381  -13.6415    1.8542 C   0  0  0  0  0  0  0  0  0  0  0  0
    5.9178  -14.0280    2.1190 C   0  0  0  0  0  0  0  0  0  0  0  0
    5.1711  -13.7081    3.2357 C   0  0  0  0  0  0  0  0  0  0  0  0
    3.9209  -14.2443    3.0841 N   0  0  0  0  0  0  0  0  0  0  0  0
    3.8291  -14.9094    1.8838 C   0  0  0  0  0  0  0  0  0  0  0  0
    2.7522  -15.5984    1.3129 C   0  0  0  0  0  0  0  0  0  0  0  0
    2.9514  -16.1887    0.0613 C   0  0  0  0  0  0  0  0  0  0  0  0
    4.1786  -16.0926   -0.5903 C   0  0  0  0  0  0  0  0  0  0  0  0
    5.2448  -15.3998   -0.0054 C   0  0  0  0  0  0  0  0  0  0  0  0
    5.0697  -14.7948    1.2564 C   0  0  0  0  0  0  0  0  0  0  0  0
  1  2  1  0
  2  3  1  0
  3  4  1  0
  4  5  2  0
  4  6  1  0
  6  7  1  0
  7  8  2  0
  7  9  1  0
  9 10  1  0
 10 11  1  0
 11 12  2  0
 12 13  1  0
 13 14  1  0
 14 15  2  0
 15 16  1  0
 16 17  2  0
 17 18  1  0
 18 19  2  0
 19 11  1  0
 19 14  1  0
M  END
$$$$
