
     RDKit          3D

 26 28  0  0  0  0  0  0  0  0999 V2000
   -3.6010   14.3953   -0.1945 C   0  0  0  0  0  0  0  0  0  0  0  0
   -3.0539   15.3995   -1.0692 N   0  0  0  0  0  0  0  0  0  0  0  0
   -2.0833   16.2720   -0.6322 C   0  0  0  0  0  0  0  0  0  0  0  0
   -1.5637   16.2067    0.4715 O   0  0  0  0  0  0  0  0  0  0  0  0
   -1.6859   17.3004   -1.6700 C   0  0  0  0  0  0  0  0  0  0  0  0
   -2.3852   18.6272   -1.4833 C   0  0  0  0  0  0  0  0  0  0  0  0
   -1.7778   19.5685   -0.6340 C   0  0  0  0  0  0  0  0  0  0  0  0
   -2.3599   20.8147   -0.4018 C   0  0  0  0  0  0  0  0  0  0  0  0
   -3.5607   21.1415   -1.0187 C   0  0  0  0  0  0  0  0  0  0  0  0
   -4.2329   22.3258   -0.8922 O   0  0  0  0  0  0  0  0  0  0  0  0
   -3.6152   23.3284   -0.0949 C   0  0  0  0  0  0  0  0  0  0  0  0
   -4.1799   20.2049   -1.8519 C   0  0  0  0  0  0  0  0  0  0  0  0
   -3.6254   18.9331   -2.0885 C   0  0  0  0  0  0  0  0  0  0  0  0
   -4.2447   17.9873   -2.9547 N   0  0  0  0  0  0  0  0  0  0  0  0
   -3.7605   18.2521   -4.3372 C   0  0  0  0  0  0  0  0  0  0  0  0
   -4.2763   17.2222   -5.3355 C   0  0  0  0  0  0  0  0  0  0  0  0
   -3.7230   17.0673   -6.4403 O   0  0  0  0  0  0  0  0  0  0  0  0
   -5.6036   16.5405   -5.0586 C   0  0  0  0  0  0  0  0  0  0  0  0
   -6.0734   16.5772   -3.6062 C   0  0  0  0  0  0  0  0  0  0  0  0
   -5.7335   17.9198   -2.9153 C   0  0  0  0  0  0  0  0  0  0  0  0
   -6.4785   18.0906   -1.6673 N   0  0  0  0  0  0  0  0  0  0  0  0
   -7.8763   18.4671   -1.8150 C   0  0  0  0  0  0  0  0  0  0  0  0
   -8.4135   18.9722   -0.4771 C   0  0  0  0  0  0  0  0  0  0  0  0
   -8.2431   17.9560    0.6523 C   0  0  0  0  0  0  0  0  0  0  0  0
   -7.4077   16.7524    0.2323 C   0  0  0  0  0  0  0  0  0  0  0  0
   -6.1795   17.1562   -0.5866 C   0  0  0  0  0  0  0  0  0  0  0  0
  1  2  1  0
  2  3  1  0
  3  4  2  0
  3  5  1  0
  5  6  1  0
  6  7  2  0
  7  8  1  0
  8  9  2  0
  9 10  1  0
 10 11  1  0
  9 12  1  0
 12 13  2  0
 13 14  1  0
 14 15  1  0
 15 16  1  0
 16 17  2  0
 16 18  1  0
 18 19  1  0
 19 20  1  0
 20 21  1  0
 21 22  1  0
 22 23  1  0
 23 24  1  0
 24 25  1  0
 25 26  1  0
 13  6  1  0
 20 14  1  0
 26 21  1  0
M  END
$$$$
