
     RDKit          3D

 27 29  0  0  0  0  0  0  0  0999 V2000
   10.1174   -5.4008  -68.6501 C   0  0  0  0  0  0  0  0  0  0  0  0
   10.6254   -4.1222  -69.0273 O   0  0  0  0  0  0  0  0  0  0  0  0
    9.8111   -3.0351  -68.8344 C   0  0  0  0  0  0  0  0  0  0  0  0
    8.6241   -3.0653  -68.0976 C   0  0  0  0  0  0  0  0  0  0  0  0
    7.8483   -1.9103  -67.9556 C   0  0  0  0  0  0  0  0  0  0  0  0
    8.2588   -0.7007  -68.5135 C   0  0  0  0  0  0  0  0  0  0  0  0
    7.4134    0.4124  -68.4844 N   0  0  0  0  0  0  0  0  0  0  0  0
    9.4163   -0.6862  -69.2968 C   0  0  0  0  0  0  0  0  0  0  0  0
   10.2306   -1.8288  -69.4350 C   0  0  0  0  0  0  0  0  0  0  0  0
   11.4859   -1.7990  -70.2902 C   0  0  0  0  0  0  0  0  0  0  0  0
   12.2259   -0.4553  -70.3463 C   0  0  0  0  0  0  0  0  0  0  0  0
   13.5301   -0.6462  -71.0242 N   0  0  0  0  0  0  0  0  0  0  0  0
   14.4500    0.7513  -71.2935 S   0  0  0  0  0  0  0  0  0  0  0  0
   15.5920    0.3847  -72.1022 O   0  0  0  0  0  0  0  0  0  0  0  0
   13.5384    1.7994  -71.7088 O   0  0  0  0  0  0  0  0  0  0  0  0
   15.0733    1.1881  -69.6892 C   0  0  0  0  0  0  0  0  0  0  0  0
   15.1273    2.5558  -69.3927 C   0  0  0  0  0  0  0  0  0  0  0  0
   15.5850    2.9374  -68.1500 C   0  0  0  0  0  0  0  0  0  0  0  0
   15.9780    2.0610  -67.2081 N   0  0  0  0  0  0  0  0  0  0  0  0
   15.9122    0.7461  -67.5292 C   0  0  0  0  0  0  0  0  0  0  0  0
   15.4641    0.2240  -68.7484 C   0  0  0  0  0  0  0  0  0  0  0  0
   15.4448   -1.1653  -69.0181 N   0  0  0  0  0  0  0  0  0  0  0  0
   16.7569   -1.6118  -69.5580 C   0  0  0  0  0  0  0  0  0  0  0  0
   16.7721   -3.1352  -69.6820 C   0  0  0  0  0  0  0  0  0  0  0  0
   16.6354   -3.8081  -68.3138 C   0  0  0  0  0  0  0  0  0  0  0  0
   15.9321   -2.9137  -67.2890 C   0  0  0  0  0  0  0  0  0  0  0  0
   14.8760   -2.0229  -67.9451 C   0  0  0  0  0  0  0  0  0  0  0  0
  1  2  1  0
  2  3  1  0
  3  4  2  0
  4  5  1  0
  5  6  2  0
  6  7  1  0
  6  8  1  0
  8  9  2  0
  9 10  1  0
 10 11  1  0
 11 12  1  0
 12 13  1  0
 13 14  2  0
 13 15  2  0
 13 16  1  0
 16 17  2  0
 17 18  1  0
 18 19  2  0
 19 20  1  0
 20 21  2  0
 21 22  1  0
 22 23  1  0
 23 24  1  0
 24 25  1  0
 25 26  1  0
 26 27  1  0
  9  3  1  0
 21 16  1  0
 27 22  1  0
M  END
$$$$
