
     RDKit          3D

 16 17  0  0  0  0  0  0  0  0999 V2000
   -2.7087   11.7045   -5.2099 N   0  0  0  0  0  0  0  0  0  0  0  0
   -3.6130   11.5726   -4.0676 C   0  0  0  0  0  0  0  0  0  0  0  0
   -5.0257   11.2541   -4.5406 C   0  0  0  0  0  0  0  0  0  0  0  0
   -5.9876   11.0998   -3.3765 C   0  0  0  0  0  0  0  0  0  0  0  0
   -5.6620   11.3605   -2.2189 O   0  0  0  0  0  0  0  0  0  0  0  0
   -7.3837   10.6304   -3.7382 C   0  0  0  0  0  0  0  0  0  0  0  0
   -8.2772   10.4846   -2.5103 C   0  0  0  0  0  0  0  0  0  0  0  0
   -9.6520   10.0213   -2.8765 C   0  0  0  0  0  0  0  0  0  0  0  0
  -10.1011    8.7150   -2.8810 C   0  0  0  0  0  0  0  0  0  0  0  0
  -11.4108    8.7114   -3.2783 N   0  0  0  0  0  0  0  0  0  0  0  0
  -11.8324    9.9934   -3.5413 C   0  0  0  0  0  0  0  0  0  0  0  0
  -13.0791   10.4622   -3.9730 C   0  0  0  0  0  0  0  0  0  0  0  0
  -13.2251   11.8403   -4.1566 C   0  0  0  0  0  0  0  0  0  0  0  0
  -12.1659   12.7119   -3.9164 C   0  0  0  0  0  0  0  0  0  0  0  0
  -10.9260   12.2258   -3.4852 C   0  0  0  0  0  0  0  0  0  0  0  0
  -10.7513   10.8396   -3.2935 C   0  0  0  0  0  0  0  0  0  0  0  0
  1  2  1  0
  2  3  1  0
  3  4  1  0
  4  5  2  0
  4  6  1  0
  6  7  1  0
  7  8  1  0
  8  9  2  0
  9 10  1  0
 10 11  1  0
 11 12  2  0
 12 13  1  0
 13 14  2  0
 14 15  1  0
 15 16  2  0
 16  8  1  0
 16 11  1  0
M  END
$$$$
