
     RDKit          3D

 30 32  0  0  0  0  0  0  0  0999 V2000
   32.9281   -0.0129  -38.4829 N   0  0  0  0  0  0  0  0  0  0  0  0
   33.3199    0.2285  -37.1961 C   0  0  0  0  0  0  0  0  0  0  0  0
   32.6811   -0.1839  -36.2382 O   0  0  0  0  0  0  0  0  0  0  0  0
   34.5431    1.0553  -37.0306 C   0  0  0  0  0  0  0  0  0  0  0  0
   35.6649    0.7512  -37.8195 C   0  0  0  0  0  0  0  0  0  0  0  0
   36.8402    1.4919  -37.6868 C   0  0  0  0  0  0  0  0  0  0  0  0
   36.8966    2.5351  -36.7671 C   0  0  0  0  0  0  0  0  0  0  0  0
   38.3449    3.4491  -36.6026 Cl  0  0  0  0  0  0  0  0  0  0  0  0
   35.7885    2.8442  -35.9766 C   0  0  0  0  0  0  0  0  0  0  0  0
   34.5946    2.1078  -36.0939 C   0  0  0  0  0  0  0  0  0  0  0  0
   33.4070    2.4953  -35.2381 C   0  0  0  0  0  0  0  0  0  0  0  0
   32.2490    3.0608  -36.0532 C   0  0  0  0  0  0  0  0  0  0  0  0
   32.4279    3.9769  -36.8528 O   0  0  0  0  0  0  0  0  0  0  0  0
   31.0455    2.4488  -35.7793 N   0  0  0  0  0  0  0  0  0  0  0  0
   29.7642    2.7414  -36.2957 C   0  0  0  0  0  0  0  0  0  0  0  0
   29.5119    3.8085  -37.1639 C   0  0  0  0  0  0  0  0  0  0  0  0
   28.2114    4.0734  -37.5917 C   0  0  0  0  0  0  0  0  0  0  0  0
   27.1654    3.2744  -37.1339 C   0  0  0  0  0  0  0  0  0  0  0  0
   25.5079    3.6019  -37.6663 S   0  0  0  0  0  0  0  0  0  0  0  0
   24.9521    4.6031  -36.4309 N   0  0  0  0  0  0  0  0  0  0  0  0
   25.5586    4.4319  -38.8477 O   0  0  0  0  0  0  0  0  0  0  0  0
   24.7561    2.3709  -37.6140 O   0  0  0  0  0  0  0  0  0  0  0  0
   27.4035    2.1949  -36.2766 C   0  0  0  0  0  0  0  0  0  0  0  0
   28.7026    1.9044  -35.8481 C   0  0  0  0  0  0  0  0  0  0  0  0
   28.9953    0.8164  -35.0092 N   0  0  0  0  0  0  0  0  0  0  0  0
   29.4898   -0.3867  -35.7047 C   0  0  0  0  0  0  0  0  0  0  0  0
   28.3586   -1.3703  -35.9894 C   0  0  0  0  0  0  0  0  0  0  0  0
   27.6153   -1.7263  -34.7071 C   0  0  0  0  0  0  0  0  0  0  0  0
   27.0807   -0.4697  -34.0298 C   0  0  0  0  0  0  0  0  0  0  0  0
   28.1708    0.5800  -33.8166 C   0  0  0  0  0  0  0  0  0  0  0  0
  1  2  1  0
  2  3  2  0
  2  4  1  0
  4  5  2  0
  5  6  1  0
  6  7  2  0
  7  8  1  0
  7  9  1  0
  9 10  2  0
 10 11  1  0
 11 12  1  0
 12 13  2  0
 12 14  1  0
 14 15  1  0
 15 16  2  0
 16 17  1  0
 17 18  2  0
 18 19  1  0
 19 20  1  0
 19 21  2  0
 19 22  2  0
 18 23  1  0
 23 24  2  0
 24 25  1  0
 25 26  1  0
 26 27  1  0
 27 28  1  0
 28 29  1  0
 29 30  1  0
 10  4  1  0
 24 15  1  0
 30 25  1  0
M  END
$$$$
