
     RDKit          3D

 25 26  0  0  0  0  0  0  0  0999 V2000
   10.2239   -3.2338   -4.0340 C   0  0  0  0  0  0  0  0  0  0  0  0
   10.3020   -2.6088   -2.7154 N   0  0  0  0  0  0  0  0  0  0  0  0
   11.6125   -1.9964   -2.4737 C   0  0  0  0  0  0  0  0  0  0  0  0
   11.8594   -0.7507   -3.2939 C   0  0  0  0  0  0  0  0  0  0  0  0
   11.0031    0.3543   -3.1834 C   0  0  0  0  0  0  0  0  0  0  0  0
   11.2273    1.5093   -3.9358 C   0  0  0  0  0  0  0  0  0  0  0  0
   12.3229    1.5793   -4.7993 C   0  0  0  0  0  0  0  0  0  0  0  0
   12.5761    2.6656   -5.5944 O   0  0  0  0  0  0  0  0  0  0  0  0
   12.3496    3.9297   -4.9727 C   0  0  0  0  0  0  0  0  0  0  0  0
   13.1926    0.4807   -4.9404 C   0  0  0  0  0  0  0  0  0  0  0  0
   14.3839    0.5872   -5.8767 C   0  0  0  0  0  0  0  0  0  0  0  0
   15.0002   -0.7000   -6.0680 O   0  0  0  0  0  0  0  0  0  0  0  0
   15.4633    1.5405   -5.3203 C   0  0  0  0  0  0  0  0  0  0  0  0
   15.7480    2.6045   -5.8608 O   0  0  0  0  0  0  0  0  0  0  0  0
   16.1505    0.9666   -4.2569 N   0  0  0  0  0  0  0  0  0  0  0  0
   16.8345    1.6593   -3.2791 C   0  0  0  0  0  0  0  0  0  0  0  0
   16.8542    2.8766   -3.1402 O   0  0  0  0  0  0  0  0  0  0  0  0
   17.5320    0.8026   -2.2766 C   0  0  0  0  0  0  0  0  0  0  0  0
   18.0857   -0.4385   -2.6269 C   0  0  0  0  0  0  0  0  0  0  0  0
   18.7338   -1.2125   -1.6584 C   0  0  0  0  0  0  0  0  0  0  0  0
   18.8327   -0.7461   -0.3466 C   0  0  0  0  0  0  0  0  0  0  0  0
   19.6270   -1.7062    0.8403 Cl  0  0  0  0  0  0  0  0  0  0  0  0
   18.2986    0.4930    0.0058 C   0  0  0  0  0  0  0  0  0  0  0  0
   17.6551    1.2714   -0.9610 C   0  0  0  0  0  0  0  0  0  0  0  0
   12.9493   -0.6771   -4.1757 C   0  0  0  0  0  0  0  0  0  0  0  0
  1  2  1  0
  2  3  1  0
  3  4  1  0
  4  5  2  0
  5  6  1  0
  6  7  2  0
  7  8  1  0
  8  9  1  0
  7 10  1  0
 10 11  1  0
 11 12  1  0
 11 13  1  0
 13 14  2  0
 13 15  1  0
 15 16  1  0
 16 17  2  0
 16 18  1  0
 18 19  2  0
 19 20  1  0
 20 21  2  0
 21 22  1  0
 21 23  1  0
 23 24  2  0
 10 25  2  0
 25  4  1  0
 24 18  1  0
M  END
$$$$
