
     RDKit          3D

 27 30  0  0  0  0  0  0  0  0999 V2000
  -12.3532  -17.0754  -23.7206 N   0  0  0  0  0  0  0  0  0  0  0  0
  -11.3519  -18.4329  -23.6585 S   0  0  0  0  0  0  0  0  0  0  0  0
  -10.5872  -18.3828  -24.8828 O   0  0  0  0  0  0  0  0  0  0  0  0
  -12.2603  -19.5110  -23.3421 O   0  0  0  0  0  0  0  0  0  0  0  0
  -10.2702  -18.1441  -22.2940 C   0  0  0  0  0  0  0  0  0  0  0  0
  -10.2011  -16.8361  -21.7868 C   0  0  0  0  0  0  0  0  0  0  0  0
   -9.4968  -16.6108  -20.6214 C   0  0  0  0  0  0  0  0  0  0  0  0
   -8.8840  -17.5861  -19.9331 N   0  0  0  0  0  0  0  0  0  0  0  0
   -8.9563  -18.8307  -20.4625 C   0  0  0  0  0  0  0  0  0  0  0  0
   -9.5989  -19.1957  -21.6572 C   0  0  0  0  0  0  0  0  0  0  0  0
   -9.4843  -20.5127  -22.0819 N   0  0  0  0  0  0  0  0  0  0  0  0
  -10.1396  -21.5235  -21.2361 C   0  0  0  0  0  0  0  0  0  0  0  0
  -10.8728  -22.5551  -22.0859 C   0  0  0  0  0  0  0  0  0  0  0  0
   -9.9435  -23.2642  -23.0668 C   0  0  0  0  0  0  0  0  0  0  0  0
   -8.7362  -22.4153  -23.4616 C   0  0  0  0  0  0  0  0  0  0  0  0
   -9.0613  -20.9078  -23.4576 C   0  0  0  0  0  0  0  0  0  0  0  0
   -7.8222  -20.1116  -23.9613 C   0  0  0  0  0  0  0  0  0  0  0  0
   -6.7192  -20.1858  -22.9975 N   0  0  0  0  0  0  0  0  0  0  0  0
   -5.5934  -19.5104  -23.2982 C   0  0  0  0  0  0  0  0  0  0  0  0
   -5.1925  -19.0514  -24.4595 N   0  0  0  0  0  0  0  0  0  0  0  0
   -3.9900  -18.4341  -24.2161 C   0  0  0  0  0  0  0  0  0  0  0  0
   -3.1262  -17.7695  -25.0987 C   0  0  0  0  0  0  0  0  0  0  0  0
   -1.9442  -17.2145  -24.5916 C   0  0  0  0  0  0  0  0  0  0  0  0
   -1.6290  -17.3187  -23.2342 C   0  0  0  0  0  0  0  0  0  0  0  0
   -2.4778  -17.9798  -22.3379 C   0  0  0  0  0  0  0  0  0  0  0  0
   -3.6480  -18.5228  -22.8716 C   0  0  0  0  0  0  0  0  0  0  0  0
   -4.6869  -19.2207  -22.3132 N   0  0  0  0  0  0  0  0  0  0  0  0
  1  2  1  0
  2  3  2  0
  2  4  2  0
  2  5  1  0
  5  6  2  0
  6  7  1  0
  7  8  2  0
  8  9  1  0
  9 10  2  0
 10 11  1  0
 11 12  1  0
 12 13  1  0
 13 14  1  0
 14 15  1  0
 15 16  1  0
 16 17  1  0
 17 18  1  0
 18 19  1  0
 19 20  2  0
 20 21  1  0
 21 22  2  0
 22 23  1  0
 23 24  2  0
 24 25  1  0
 25 26  2  0
 26 27  1  0
 10  5  1  0
 16 11  1  0
 27 19  1  0
 26 21  1  0
M  END
$$$$
