
     RDKit          3D

 19 20  0  0  0  0  0  0  0  0999 V2000
   -7.1965    1.4243    5.7655 N   0  0  0  0  0  0  0  0  0  0  0  0
   -6.6895    0.9067    4.5000 C   0  0  0  0  0  0  0  0  0  0  0  0
   -6.6594    1.9856    3.4278 C   0  0  0  0  0  0  0  0  0  0  0  0
   -8.0515    2.3661    2.9676 C   0  0  0  0  0  0  0  0  0  0  0  0
   -8.8083    1.5459    2.4439 O   0  0  0  0  0  0  0  0  0  0  0  0
   -8.4802    3.7931    3.1574 C   0  0  0  0  0  0  0  0  0  0  0  0
   -8.9159    4.1002    4.5631 C   0  0  0  0  0  0  0  0  0  0  0  0
   -8.1224    4.5762    5.3781 O   0  0  0  0  0  0  0  0  0  0  0  0
  -10.3461    3.7843    4.9398 C   0  0  0  0  0  0  0  0  0  0  0  0
  -10.4381    2.4784    5.7149 C   0  0  0  0  0  0  0  0  0  0  0  0
  -11.8584    2.0920    5.9796 C   0  0  0  0  0  0  0  0  0  0  0  0
  -12.6050    2.4119    7.0964 C   0  0  0  0  0  0  0  0  0  0  0  0
  -13.8553    1.8756    6.9447 N   0  0  0  0  0  0  0  0  0  0  0  0
  -13.9470    1.2106    5.7445 C   0  0  0  0  0  0  0  0  0  0  0  0
  -15.0240    0.5216    5.1736 C   0  0  0  0  0  0  0  0  0  0  0  0
  -14.8248   -0.0687    3.9220 C   0  0  0  0  0  0  0  0  0  0  0  0
  -13.5976    0.0274    3.2704 C   0  0  0  0  0  0  0  0  0  0  0  0
  -12.5314    0.7202    3.8553 C   0  0  0  0  0  0  0  0  0  0  0  0
  -12.7065    1.3251    5.1171 C   0  0  0  0  0  0  0  0  0  0  0  0
  1  2  1  0
  2  3  1  0
  3  4  1  0
  4  5  2  0
  4  6  1  0
  6  7  1  0
  7  8  2  0
  7  9  1  0
  9 10  1  0
 10 11  1  0
 11 12  2  0
 12 13  1  0
 13 14  1  0
 14 15  2  0
 15 16  1  0
 16 17  2  0
 17 18  1  0
 18 19  2  0
 19 11  1  0
 19 14  1  0
M  END
$$$$
