
     RDKit          3D

 25 27  0  0  0  0  0  0  0  0999 V2000
  -16.9299  -12.7654  -25.7834 C   0  0  0  0  0  0  0  0  0  0  0  0
  -15.9062  -12.8928  -26.7732 O   0  0  0  0  0  0  0  0  0  0  0  0
  -15.5364  -11.6405  -27.2084 C   0  0  0  0  0  0  0  0  0  0  0  0
  -14.4197  -11.0623  -26.6013 C   0  0  0  0  0  0  0  0  0  0  0  0
  -13.9846   -9.8064  -27.0108 C   0  0  0  0  0  0  0  0  0  0  0  0
  -14.6470   -9.1337  -28.0442 C   0  0  0  0  0  0  0  0  0  0  0  0
  -14.1688   -7.7758  -28.4922 C   0  0  0  0  0  0  0  0  0  0  0  0
  -14.3909   -6.7713  -27.4615 N   0  0  0  0  0  0  0  0  0  0  0  0
  -15.7573   -9.7437  -28.6588 C   0  0  0  0  0  0  0  0  0  0  0  0
  -16.2313  -11.0026  -28.2580 C   0  0  0  0  0  0  0  0  0  0  0  0
  -17.2899  -11.6537  -28.8932 N   0  0  0  0  0  0  0  0  0  0  0  0
  -16.8556  -12.5313  -29.9815 C   0  0  0  0  0  0  0  0  0  0  0  0
  -17.7465  -13.6406  -30.1381 O   0  0  0  0  0  0  0  0  0  0  0  0
  -17.6341  -14.5803  -29.0770 C   0  0  0  0  0  0  0  0  0  0  0  0
  -16.8400  -11.7725  -31.3008 C   0  0  0  0  0  0  0  0  0  0  0  0
  -18.1476  -11.0511  -31.5038 C   0  0  0  0  0  0  0  0  0  0  0  0
  -18.6524  -10.9680  -32.6278 O   0  0  0  0  0  0  0  0  0  0  0  0
  -18.7274  -10.2659  -30.3516 C   0  0  0  0  0  0  0  0  0  0  0  0
  -18.6359  -11.0693  -29.0454 C   0  0  0  0  0  0  0  0  0  0  0  0
  -19.3384  -10.4422  -27.9011 N   0  0  0  0  0  0  0  0  0  0  0  0
  -18.7634   -9.1925  -27.4006 C   0  0  0  0  0  0  0  0  0  0  0  0
  -19.7541   -8.3165  -26.6177 C   0  0  0  0  0  0  0  0  0  0  0  0
  -20.7149   -9.1669  -25.8016 C   0  0  0  0  0  0  0  0  0  0  0  0
  -21.4599  -10.1626  -26.6921 C   0  0  0  0  0  0  0  0  0  0  0  0
  -20.7904  -10.3764  -28.0552 C   0  0  0  0  0  0  0  0  0  0  0  0
  1  2  1  0
  2  3  1  0
  3  4  2  0
  4  5  1  0
  5  6  2  0
  6  7  1  0
  7  8  1  0
  6  9  1  0
  9 10  2  0
 10 11  1  0
 11 12  1  0
 12 13  1  0
 13 14  1  0
 12 15  1  0
 15 16  1  0
 16 17  2  0
 16 18  1  0
 18 19  1  0
 19 20  1  0
 20 21  1  0
 21 22  1  0
 22 23  1  0
 23 24  1  0
 24 25  1  0
 10  3  1  0
 19 11  1  0
 25 20  1  0
M  END
$$$$
