
     RDKit          3D

 16 17  0  0  0  0  0  0  0  0999 V2000
  -18.2960    4.2782   30.9811 N   0  0  0  0  0  0  0  0  0  0  0  0
  -19.2002    4.1462   32.1234 C   0  0  0  0  0  0  0  0  0  0  0  0
  -20.6130    3.8278   31.6505 C   0  0  0  0  0  0  0  0  0  0  0  0
  -21.5749    3.6735   32.8146 C   0  0  0  0  0  0  0  0  0  0  0  0
  -21.2493    3.9342   33.9721 O   0  0  0  0  0  0  0  0  0  0  0  0
  -22.9710    3.2040   32.4528 C   0  0  0  0  0  0  0  0  0  0  0  0
  -23.8645    3.0582   33.6808 C   0  0  0  0  0  0  0  0  0  0  0  0
  -25.2393    2.5950   33.3145 C   0  0  0  0  0  0  0  0  0  0  0  0
  -25.6883    1.2887   33.3100 C   0  0  0  0  0  0  0  0  0  0  0  0
  -26.9980    1.2850   32.9127 N   0  0  0  0  0  0  0  0  0  0  0  0
  -27.4197    2.5671   32.6497 C   0  0  0  0  0  0  0  0  0  0  0  0
  -28.6664    3.0359   32.2181 C   0  0  0  0  0  0  0  0  0  0  0  0
  -28.8124    4.4139   32.0344 C   0  0  0  0  0  0  0  0  0  0  0  0
  -27.7531    5.2855   32.2746 C   0  0  0  0  0  0  0  0  0  0  0  0
  -26.5133    4.7995   32.7058 C   0  0  0  0  0  0  0  0  0  0  0  0
  -26.3386    3.4133   32.8976 C   0  0  0  0  0  0  0  0  0  0  0  0
  1  2  1  0
  2  3  1  0
  3  4  1  0
  4  5  2  0
  4  6  1  0
  6  7  1  0
  7  8  1  0
  8  9  2  0
  9 10  1  0
 10 11  1  0
 11 12  2  0
 12 13  1  0
 13 14  2  0
 14 15  1  0
 15 16  2  0
 16  8  1  0
 16 11  1  0
M  END
$$$$
