
     RDKit          3D

 24 26  0  0  0  0  0  0  0  0999 V2000
  -17.5517   44.3230  -48.4986 C   0  0  0  0  0  0  0  0  0  0  0  0
  -16.6200   45.3543  -48.7986 O   0  0  0  0  0  0  0  0  0  0  0  0
  -16.6221   46.4466  -47.9757 C   0  0  0  0  0  0  0  0  0  0  0  0
  -17.4681   46.6588  -46.8969 C   0  0  0  0  0  0  0  0  0  0  0  0
  -17.3560   47.8336  -46.1500 C   0  0  0  0  0  0  0  0  0  0  0  0
  -16.3956   48.8228  -46.4564 C   0  0  0  0  0  0  0  0  0  0  0  0
  -16.4171   50.0744  -45.6067 C   0  0  0  0  0  0  0  0  0  0  0  0
  -17.5941   50.9893  -45.9707 C   0  0  0  0  0  0  0  0  0  0  0  0
  -17.5478   52.2374  -45.2093 N   0  0  0  0  0  0  0  0  0  0  0  0
  -15.5149   48.6031  -47.5330 C   0  0  0  0  0  0  0  0  0  0  0  0
  -14.4848   49.4580  -47.9530 N   0  0  0  0  0  0  0  0  0  0  0  0
  -14.9660   50.6684  -48.6353 C   0  0  0  0  0  0  0  0  0  0  0  0
  -13.8229   51.3463  -49.3743 C   0  0  0  0  0  0  0  0  0  0  0  0
  -13.9852   51.9151  -50.4558 O   0  0  0  0  0  0  0  0  0  0  0  0
  -12.5081   51.4434  -48.6362 C   0  0  0  0  0  0  0  0  0  0  0  0
  -12.1611   50.1251  -47.9540 C   0  0  0  0  0  0  0  0  0  0  0  0
  -13.3254   49.6316  -47.0502 C   0  0  0  0  0  0  0  0  0  0  0  0
  -12.8996   48.5257  -46.1819 N   0  0  0  0  0  0  0  0  0  0  0  0
  -12.1795   48.9485  -44.9798 C   0  0  0  0  0  0  0  0  0  0  0  0
  -11.3854   47.8166  -44.3134 C   0  0  0  0  0  0  0  0  0  0  0  0
  -12.0899   46.4760  -44.4716 C   0  0  0  0  0  0  0  0  0  0  0  0
  -12.3497   46.1556  -45.9465 C   0  0  0  0  0  0  0  0  0  0  0  0
  -12.2886   47.3891  -46.8553 C   0  0  0  0  0  0  0  0  0  0  0  0
  -15.6657   47.4168  -48.2823 C   0  0  0  0  0  0  0  0  0  0  0  0
  1  2  1  0
  2  3  1  0
  3  4  2  0
  4  5  1  0
  5  6  2  0
  6  7  1  0
  7  8  1  0
  8  9  1  0
  6 10  1  0
 10 11  1  0
 11 12  1  0
 12 13  1  0
 13 14  2  0
 13 15  1  0
 15 16  1  0
 16 17  1  0
 17 18  1  0
 18 19  1  0
 19 20  1  0
 20 21  1  0
 21 22  1  0
 22 23  1  0
 10 24  2  0
 24  3  1  0
 17 11  1  0
 23 18  1  0
M  END
$$$$
