
     RDKit          3D

 17 18  0  0  0  0  0  0  0  0999 V2000
   15.1509    6.4144    2.6217 N   0  0  0  0  0  0  0  0  0  0  0  0
   16.2552    7.3198    2.9019 C   0  0  0  0  0  0  0  0  0  0  0  0
   16.6688    8.1657    1.6938 C   0  0  0  0  0  0  0  0  0  0  0  0
   16.9895    7.3825    0.4252 C   0  0  0  0  0  0  0  0  0  0  0  0
   18.0044    6.2815    0.6519 C   0  0  0  0  0  0  0  0  0  0  0  0
   17.6439    5.1053    0.7141 O   0  0  0  0  0  0  0  0  0  0  0  0
   19.4498    6.6983    0.8197 C   0  0  0  0  0  0  0  0  0  0  0  0
   20.3709    5.4865    0.9234 C   0  0  0  0  0  0  0  0  0  0  0  0
   21.7979    5.8911    1.0735 C   0  0  0  0  0  0  0  0  0  0  0  0
   22.3689    6.9754    0.5907 N   0  0  0  0  0  0  0  0  0  0  0  0
   23.6881    6.8993    0.9676 C   0  0  0  0  0  0  0  0  0  0  0  0
   24.7448    7.7874    0.7230 C   0  0  0  0  0  0  0  0  0  0  0  0
   26.0153    7.4745    1.2249 C   0  0  0  0  0  0  0  0  0  0  0  0
   26.2284    6.2999    1.9532 C   0  0  0  0  0  0  0  0  0  0  0  0
   25.1852    5.4013    2.2075 C   0  0  0  0  0  0  0  0  0  0  0  0
   23.9298    5.7404    1.6976 C   0  0  0  0  0  0  0  0  0  0  0  0
   22.7111    5.1145    1.7480 N   0  0  0  0  0  0  0  0  0  0  0  0
  1  2  1  0
  2  3  1  0
  3  4  1  0
  4  5  1  0
  5  6  2  0
  5  7  1  0
  7  8  1  0
  8  9  1  0
  9 10  2  0
 10 11  1  0
 11 12  2  0
 12 13  1  0
 13 14  2  0
 14 15  1  0
 15 16  2  0
 16 17  1  0
 17  9  1  0
 16 11  1  0
M  END
$$$$
