
     RDKit          3D

 24 25  0  0  0  0  0  0  0  0999 V2000
  -16.6614   11.5814   60.7797 C   0  0  0  0  0  0  0  0  0  0  0  0
  -16.1350   12.1861   61.9939 N   0  0  0  0  0  0  0  0  0  0  0  0
  -15.1146   13.2001   61.7262 C   0  0  0  0  0  0  0  0  0  0  0  0
  -13.7882   12.6196   61.2911 C   0  0  0  0  0  0  0  0  0  0  0  0
  -13.3897   12.6684   59.9505 C   0  0  0  0  0  0  0  0  0  0  0  0
  -12.1612   12.1330   59.5499 C   0  0  0  0  0  0  0  0  0  0  0  0
  -11.3157   11.5253   60.4830 C   0  0  0  0  0  0  0  0  0  0  0  0
  -10.0769   11.0073   60.1866 O   0  0  0  0  0  0  0  0  0  0  0  0
   -9.8144   10.7459   58.8106 C   0  0  0  0  0  0  0  0  0  0  0  0
  -11.7043   11.4603   61.8342 C   0  0  0  0  0  0  0  0  0  0  0  0
  -10.8185   10.8327   62.8886 C   0  0  0  0  0  0  0  0  0  0  0  0
   -9.7802   11.7980   63.4361 C   0  0  0  0  0  0  0  0  0  0  0  0
   -9.8556   12.2269   64.5831 O   0  0  0  0  0  0  0  0  0  0  0  0
   -8.7607   12.0519   62.5305 N   0  0  0  0  0  0  0  0  0  0  0  0
   -7.8027   13.0381   62.6628 C   0  0  0  0  0  0  0  0  0  0  0  0
   -7.5826   13.7106   63.6603 O   0  0  0  0  0  0  0  0  0  0  0  0
   -6.9713   13.2740   61.4483 C   0  0  0  0  0  0  0  0  0  0  0  0
   -6.5386   14.5812   61.1818 C   0  0  0  0  0  0  0  0  0  0  0  0
   -5.7584   14.8441   60.0538 C   0  0  0  0  0  0  0  0  0  0  0  0
   -5.4072   13.8001   59.2043 C   0  0  0  0  0  0  0  0  0  0  0  0
   -4.6580   14.0505   58.1230 F   0  0  0  0  0  0  0  0  0  0  0  0
   -5.8159   12.4956   59.4645 C   0  0  0  0  0  0  0  0  0  0  0  0
   -6.5965   12.2266   60.5917 C   0  0  0  0  0  0  0  0  0  0  0  0
  -12.9358   12.0160   62.2262 C   0  0  0  0  0  0  0  0  0  0  0  0
  1  2  1  0
  2  3  1  0
  3  4  1  0
  4  5  2  0
  5  6  1  0
  6  7  2  0
  7  8  1  0
  8  9  1  0
  7 10  1  0
 10 11  1  0
 11 12  1  0
 12 13  2  0
 12 14  1  0
 14 15  1  0
 15 16  2  0
 15 17  1  0
 17 18  2  0
 18 19  1  0
 19 20  2  0
 20 21  1  0
 20 22  1  0
 22 23  2  0
 10 24  2  0
 24  4  1  0
 23 17  1  0
M  END
$$$$
