
     RDKit          3D

 20 21  0  0  0  0  0  0  0  0999 V2000
   41.6561   -2.6533  -66.4267 C   0  0  0  0  0  0  0  0  0  0  0  0
   41.8008   -1.3301  -65.8225 N   0  0  0  0  0  0  0  0  0  0  0  0
   41.4131   -0.2667  -66.7627 C   0  0  0  0  0  0  0  0  0  0  0  0
   39.9081   -0.2591  -67.0068 C   0  0  0  0  0  0  0  0  0  0  0  0
   39.4568   -0.5337  -68.1214 O   0  0  0  0  0  0  0  0  0  0  0  0
   39.0348    0.0575  -65.8022 C   0  0  0  0  0  0  0  0  0  0  0  0
   37.6998    0.6751  -66.1497 C   0  0  0  0  0  0  0  0  0  0  0  0
   37.6945    2.0559  -66.4391 C   0  0  0  0  0  0  0  0  0  0  0  0
   36.5130    2.7265  -66.7529 C   0  0  0  0  0  0  0  0  0  0  0  0
   35.3063    2.0391  -66.7909 C   0  0  0  0  0  0  0  0  0  0  0  0
   34.2174    2.8043  -67.1067 O   0  0  0  0  0  0  0  0  0  0  0  0
   32.9719    2.1264  -67.2144 C   0  0  0  0  0  0  0  0  0  0  0  0
   35.3015    0.6724  -66.5130 C   0  0  0  0  0  0  0  0  0  0  0  0
   36.4839   -0.0344  -66.1983 C   0  0  0  0  0  0  0  0  0  0  0  0
   36.3170   -1.4025  -65.9503 N   0  0  0  0  0  0  0  0  0  0  0  0
   37.0205   -2.3204  -66.8505 C   0  0  0  0  0  0  0  0  0  0  0  0
   36.3694   -3.7012  -66.7521 C   0  0  0  0  0  0  0  0  0  0  0  0
   36.3317   -4.1892  -65.3036 C   0  0  0  0  0  0  0  0  0  0  0  0
   35.6527   -3.1615  -64.3981 C   0  0  0  0  0  0  0  0  0  0  0  0
   36.2979   -1.7812  -64.5354 C   0  0  0  0  0  0  0  0  0  0  0  0
  1  2  1  0
  2  3  1  0
  3  4  1  0
  4  5  2  0
  4  6  1  0
  6  7  1  0
  7  8  2  0
  8  9  1  0
  9 10  2  0
 10 11  1  0
 11 12  1  0
 10 13  1  0
 13 14  2  0
 14 15  1  0
 15 16  1  0
 16 17  1  0
 17 18  1  0
 18 19  1  0
 19 20  1  0
 14  7  1  0
 20 15  1  0
M  END
$$$$
