
     RDKit          3D

 24 26  0  0  0  0  0  0  0  0999 V2000
    3.4861    1.7722    7.7811 C   0  0  0  0  0  0  0  0  0  0  0  0
    2.5823    2.2432    6.7410 N   0  0  0  0  0  0  0  0  0  0  0  0
    3.2938    2.8132    5.5952 C   0  0  0  0  0  0  0  0  0  0  0  0
    3.8851    4.1758    5.8699 C   0  0  0  0  0  0  0  0  0  0  0  0
    3.0694    5.3120    5.9083 C   0  0  0  0  0  0  0  0  0  0  0  0
    3.6125    6.5721    6.1783 C   0  0  0  0  0  0  0  0  0  0  0  0
    4.9820    6.7201    6.4157 C   0  0  0  0  0  0  0  0  0  0  0  0
    5.6009    7.9097    6.6990 O   0  0  0  0  0  0  0  0  0  0  0  0
    4.7987    9.0828    6.6924 C   0  0  0  0  0  0  0  0  0  0  0  0
    5.8156    5.5875    6.3773 C   0  0  0  0  0  0  0  0  0  0  0  0
    7.3023    5.6865    6.6476 C   0  0  0  0  0  0  0  0  0  0  0  0
    7.6024    5.6753    8.1494 C   0  0  0  0  0  0  0  0  0  0  0  0
    9.0994    5.7888    8.4372 C   0  0  0  0  0  0  0  0  0  0  0  0
    9.7805    4.5708    8.0270 N   0  0  0  0  0  0  0  0  0  0  0  0
   11.1615    4.5582    8.2577 C   0  0  0  0  0  0  0  0  0  0  0  0
   11.8954    5.7023    8.2001 N   0  0  0  0  0  0  0  0  0  0  0  0
   13.2295    5.6332    8.4061 C   0  0  0  0  0  0  0  0  0  0  0  0
   13.9802    4.5479    8.6850 N   0  0  0  0  0  0  0  0  0  0  0  0
   13.2128    3.4510    8.7385 C   0  0  0  0  0  0  0  0  0  0  0  0
   13.6209    2.1751    8.9967 N   0  0  0  0  0  0  0  0  0  0  0  0
   12.5129    1.3721    8.9635 C   0  0  0  0  0  0  0  0  0  0  0  0
   11.4181    2.0544    8.6993 N   0  0  0  0  0  0  0  0  0  0  0  0
   11.8457    3.3607    8.5465 C   0  0  0  0  0  0  0  0  0  0  0  0
    5.2567    4.3250    6.1096 C   0  0  0  0  0  0  0  0  0  0  0  0
  1  2  1  0
  2  3  1  0
  3  4  1  0
  4  5  2  0
  5  6  1  0
  6  7  2  0
  7  8  1  0
  8  9  1  0
  7 10  1  0
 10 11  1  0
 11 12  1  0
 12 13  1  0
 13 14  1  0
 14 15  1  0
 15 16  2  0
 16 17  1  0
 17 18  2  0
 18 19  1  0
 19 20  1  0
 20 21  1  0
 21 22  2  0
 22 23  1  0
 10 24  2  0
 24  4  1  0
 23 15  1  0
 23 19  2  0
M  END
$$$$
