
     RDKit          3D

 23 25  0  0  0  0  0  0  0  0999 V2000
  -40.1080   70.9821   13.6019 C   0  0  0  0  0  0  0  0  0  0  0  0
  -38.9638   70.2867   14.0818 O   0  0  0  0  0  0  0  0  0  0  0  0
  -38.1646   70.9536   14.9693 C   0  0  0  0  0  0  0  0  0  0  0  0
  -38.2825   72.2901   15.3315 C   0  0  0  0  0  0  0  0  0  0  0  0
  -37.3909   72.8396   16.2552 C   0  0  0  0  0  0  0  0  0  0  0  0
  -36.3722   72.0644   16.8459 C   0  0  0  0  0  0  0  0  0  0  0  0
  -35.4696   72.7102   17.8760 C   0  0  0  0  0  0  0  0  0  0  0  0
  -36.2154   73.2008   19.0415 N   0  0  0  0  0  0  0  0  0  0  0  0
  -36.2249   70.7168   16.4559 C   0  0  0  0  0  0  0  0  0  0  0  0
  -35.1661   69.9352   16.9625 N   0  0  0  0  0  0  0  0  0  0  0  0
  -35.5788   68.7062   17.6595 C   0  0  0  0  0  0  0  0  0  0  0  0
  -35.5057   67.4718   16.7794 C   0  0  0  0  0  0  0  0  0  0  0  0
  -36.2831   66.5246   16.9104 O   0  0  0  0  0  0  0  0  0  0  0  0
  -34.4051   67.4305   15.7493 C   0  0  0  0  0  0  0  0  0  0  0  0
  -33.3540   68.4838   16.0681 C   0  0  0  0  0  0  0  0  0  0  0  0
  -33.9822   69.9030   16.0653 C   0  0  0  0  0  0  0  0  0  0  0  0
  -32.9697   70.9483   16.2723 N   0  0  0  0  0  0  0  0  0  0  0  0
  -32.1568   70.8112   17.4719 C   0  0  0  0  0  0  0  0  0  0  0  0
  -31.4988   72.1523   17.8203 C   0  0  0  0  0  0  0  0  0  0  0  0
  -31.0471   72.9442   16.5904 C   0  0  0  0  0  0  0  0  0  0  0  0
  -30.8939   72.0360   15.3783 C   0  0  0  0  0  0  0  0  0  0  0  0
  -32.1999   71.2877   15.0743 C   0  0  0  0  0  0  0  0  0  0  0  0
  -37.1379   70.1834   15.5249 C   0  0  0  0  0  0  0  0  0  0  0  0
  1  2  1  0
  2  3  1  0
  3  4  2  0
  4  5  1  0
  5  6  2  0
  6  7  1  0
  7  8  1  0
  6  9  1  0
  9 10  1  0
 10 11  1  0
 11 12  1  0
 12 13  2  0
 12 14  1  0
 14 15  1  0
 15 16  1  0
 16 17  1  0
 17 18  1  0
 18 19  1  0
 19 20  1  0
 20 21  1  0
 21 22  1  0
  9 23  2  0
 23  3  1  0
 16 10  1  0
 22 17  1  0
M  END
$$$$
