
     RDKit          3D

 19 20  0  0  0  0  0  0  0  0999 V2000
   17.0915   17.3654  -10.3114 N   0  0  0  0  0  0  0  0  0  0  0  0
   16.4522   18.6802  -10.3231 C   0  0  0  0  0  0  0  0  0  0  0  0
   15.8023   19.0272   -8.9909 C   0  0  0  0  0  0  0  0  0  0  0  0
   14.4731   18.3259   -8.7981 C   0  0  0  0  0  0  0  0  0  0  0  0
   14.3151   17.5089   -7.8876 O   0  0  0  0  0  0  0  0  0  0  0  0
   13.3598   18.6551   -9.7783 C   0  0  0  0  0  0  0  0  0  0  0  0
   11.9823   18.4606   -9.1589 C   0  0  0  0  0  0  0  0  0  0  0  0
   11.7126   19.4570   -8.0450 C   0  0  0  0  0  0  0  0  0  0  0  0
   12.4462   20.4302   -7.8569 O   0  0  0  0  0  0  0  0  0  0  0  0
   10.4787   19.2122   -7.1966 C   0  0  0  0  0  0  0  0  0  0  0  0
    9.2285   19.4958   -7.9582 C   0  0  0  0  0  0  0  0  0  0  0  0
    8.6889   20.7429   -8.1998 C   0  0  0  0  0  0  0  0  0  0  0  0
    7.5493   20.5837   -8.9393 N   0  0  0  0  0  0  0  0  0  0  0  0
    7.3358   19.2552   -9.2026 C   0  0  0  0  0  0  0  0  0  0  0  0
    6.3106   18.6366   -9.9278 C   0  0  0  0  0  0  0  0  0  0  0  0
    6.3451   17.2410  -10.0427 C   0  0  0  0  0  0  0  0  0  0  0  0
    7.3652   16.5007   -9.4538 C   0  0  0  0  0  0  0  0  0  0  0  0
    8.3798   17.1353   -8.7268 C   0  0  0  0  0  0  0  0  0  0  0  0
    8.3694   18.5427   -8.5965 C   0  0  0  0  0  0  0  0  0  0  0  0
  1  2  1  0
  2  3  1  0
  3  4  1  0
  4  5  2  0
  4  6  1  0
  6  7  1  0
  7  8  1  0
  8  9  2  0
  8 10  1  0
 10 11  1  0
 11 12  2  0
 12 13  1  0
 13 14  1  0
 14 15  2  0
 15 16  1  0
 16 17  2  0
 17 18  1  0
 18 19  2  0
 19 11  1  0
 19 14  1  0
M  END
$$$$
