
     RDKit          3D

 23 25  0  0  0  0  0  0  0  0999 V2000
    7.1100  -21.7111   17.1044 C   0  0  0  0  0  0  0  0  0  0  0  0
    7.4034  -20.5386   17.8540 O   0  0  0  0  0  0  0  0  0  0  0  0
    6.4188  -19.5894   17.9495 C   0  0  0  0  0  0  0  0  0  0  0  0
    5.1910  -19.6476   17.2863 C   0  0  0  0  0  0  0  0  0  0  0  0
    4.2543  -18.6187   17.4359 C   0  0  0  0  0  0  0  0  0  0  0  0
    4.5398  -17.4970   18.2117 C   0  0  0  0  0  0  0  0  0  0  0  0
    3.5554  -16.5336   18.4504 N   0  0  0  0  0  0  0  0  0  0  0  0
    5.7408  -17.4685   18.9214 C   0  0  0  0  0  0  0  0  0  0  0  0
    6.6990  -18.4917   18.7843 C   0  0  0  0  0  0  0  0  0  0  0  0
    7.9992  -18.3885   19.5527 C   0  0  0  0  0  0  0  0  0  0  0  0
    9.1878  -18.2525   18.7036 N   0  0  0  0  0  0  0  0  0  0  0  0
    9.2487  -17.0131   17.9250 C   0  0  0  0  0  0  0  0  0  0  0  0
    9.3329  -15.7470   18.7772 C   0  0  0  0  0  0  0  0  0  0  0  0
    9.8896  -14.7591   17.7928 C   0  0  0  0  0  0  0  0  0  0  0  0
    9.8545  -13.5455   17.9640 O   0  0  0  0  0  0  0  0  0  0  0  0
   10.4891  -15.4098   16.5758 C   0  0  0  0  0  0  0  0  0  0  0  0
   10.4446  -16.9112   16.9177 C   0  0  0  0  0  0  0  0  0  0  0  0
   11.7986  -17.4173   17.2403 N   0  0  0  0  0  0  0  0  0  0  0  0
   12.3304  -17.0235   18.5496 C   0  0  0  0  0  0  0  0  0  0  0  0
   13.8065  -17.4093   18.6838 C   0  0  0  0  0  0  0  0  0  0  0  0
   14.0195  -18.8970   18.4356 C   0  0  0  0  0  0  0  0  0  0  0  0
   13.3908  -19.3062   17.1099 C   0  0  0  0  0  0  0  0  0  0  0  0
   11.9269  -18.8669   17.0319 C   0  0  0  0  0  0  0  0  0  0  0  0
  1  2  1  0
  2  3  1  0
  3  4  2  0
  4  5  1  0
  5  6  2  0
  6  7  1  0
  6  8  1  0
  8  9  2  0
  9 10  1  0
 10 11  1  0
 11 12  1  0
 12 13  1  0
 13 14  1  0
 14 15  2  0
 14 16  1  0
 16 17  1  0
 17 18  1  0
 18 19  1  0
 19 20  1  0
 20 21  1  0
 21 22  1  0
 22 23  1  0
  9  3  1  0
 17 12  1  0
 23 18  1  0
M  END
$$$$
