
     RDKit          3D

 22 24  0  0  0  0  0  0  0  0999 V2000
  -25.1325    5.6717   14.6004 N   0  0  0  0  0  0  0  0  0  0  0  0
  -25.1185    7.0176   14.8264 C   0  0  0  0  0  0  0  0  0  0  0  0
  -25.2866    7.8486   13.9462 O   0  0  0  0  0  0  0  0  0  0  0  0
  -24.9144    7.4164   16.2319 C   0  0  0  0  0  0  0  0  0  0  0  0
  -26.0482    7.7733   16.9672 C   0  0  0  0  0  0  0  0  0  0  0  0
  -25.9143    8.1515   18.3039 C   0  0  0  0  0  0  0  0  0  0  0  0
  -24.6516    8.2270   18.8989 C   0  0  0  0  0  0  0  0  0  0  0  0
  -24.5343    8.4988   20.2671 N   0  0  0  0  0  0  0  0  0  0  0  0
  -23.5297    7.8218   18.1645 C   0  0  0  0  0  0  0  0  0  0  0  0
  -23.6369    7.4291   16.8174 C   0  0  0  0  0  0  0  0  0  0  0  0
  -22.3843    7.0871   16.0436 C   0  0  0  0  0  0  0  0  0  0  0  0
  -21.8425    8.2921   15.2654 C   0  0  0  0  0  0  0  0  0  0  0  0
  -20.6716    7.9173   14.4586 N   0  0  0  0  0  0  0  0  0  0  0  0
  -19.4522    8.1924   14.9727 C   0  0  0  0  0  0  0  0  0  0  0  0
  -18.5992    9.0882   14.5415 N   0  0  0  0  0  0  0  0  0  0  0  0
  -17.5059    8.9744   15.3659 C   0  0  0  0  0  0  0  0  0  0  0  0
  -16.3068    9.7024   15.3728 C   0  0  0  0  0  0  0  0  0  0  0  0
  -15.3325    9.3804   16.3270 C   0  0  0  0  0  0  0  0  0  0  0  0
  -15.5459    8.3518   17.2506 C   0  0  0  0  0  0  0  0  0  0  0  0
  -16.7354    7.6127   17.2585 C   0  0  0  0  0  0  0  0  0  0  0  0
  -17.6911    7.9599   16.3017 C   0  0  0  0  0  0  0  0  0  0  0  0
  -18.9380    7.4689   16.0145 N   0  0  0  0  0  0  0  0  0  0  0  0
  1  2  1  0
  2  3  2  0
  2  4  1  0
  4  5  2  0
  5  6  1  0
  6  7  2  0
  7  8  1  0
  7  9  1  0
  9 10  2  0
 10 11  1  0
 11 12  1  0
 12 13  1  0
 13 14  1  0
 14 15  2  0
 15 16  1  0
 16 17  2  0
 17 18  1  0
 18 19  2  0
 19 20  1  0
 20 21  2  0
 21 22  1  0
 10  4  1  0
 22 14  1  0
 21 16  1  0
M  END
$$$$
