
     RDKit          3D

 16 17  0  0  0  0  0  0  0  0999 V2000
    0.2592  -62.1094   72.5068 C   0  0  0  0  0  0  0  0  0  0  0  0
   -0.2879  -63.4058   72.7006 O   0  0  0  0  0  0  0  0  0  0  0  0
    0.5873  -64.4540   72.8475 C   0  0  0  0  0  0  0  0  0  0  0  0
    1.9807  -64.3153   72.8030 C   0  0  0  0  0  0  0  0  0  0  0  0
    2.8155  -65.4258   72.9595 C   0  0  0  0  0  0  0  0  0  0  0  0
    2.2788  -66.6997   73.1639 C   0  0  0  0  0  0  0  0  0  0  0  0
    3.1772  -67.8963   73.3297 C   0  0  0  0  0  0  0  0  0  0  0  0
    3.9870  -67.7908   74.5385 N   0  0  0  0  0  0  0  0  0  0  0  0
    0.8862  -66.8381   73.2103 C   0  0  0  0  0  0  0  0  0  0  0  0
    0.0248  -65.7358   73.0547 C   0  0  0  0  0  0  0  0  0  0  0  0
   -1.3620  -66.0230   73.1230 N   0  0  0  0  0  0  0  0  0  0  0  0
   -2.0117  -65.3918   74.2822 C   0  0  0  0  0  0  0  0  0  0  0  0
   -3.4245  -65.9624   74.4250 C   0  0  0  0  0  0  0  0  0  0  0  0
   -4.2262  -65.7794   73.1362 C   0  0  0  0  0  0  0  0  0  0  0  0
   -3.4685  -66.3450   71.9349 C   0  0  0  0  0  0  0  0  0  0  0  0
   -2.0547  -65.7653   71.8509 C   0  0  0  0  0  0  0  0  0  0  0  0
  1  2  1  0
  2  3  1  0
  3  4  2  0
  4  5  1  0
  5  6  2  0
  6  7  1  0
  7  8  1  0
  6  9  1  0
  9 10  2  0
 10 11  1  0
 11 12  1  0
 12 13  1  0
 13 14  1  0
 14 15  1  0
 15 16  1  0
 10  3  1  0
 16 11  1  0
M  END
$$$$
