
     RDKit          3D

 21 23  0  0  0  0  0  0  0  0999 V2000
   15.2717  -17.6188  -30.2159 N   0  0  0  0  0  0  0  0  0  0  0  0
   16.6222  -17.4038  -30.3057 C   0  0  0  0  0  0  0  0  0  0  0  0
   17.3451  -17.5103  -29.3260 O   0  0  0  0  0  0  0  0  0  0  0  0
   17.1211  -17.0295  -31.6523 C   0  0  0  0  0  0  0  0  0  0  0  0
   16.5116  -15.9038  -32.2307 C   0  0  0  0  0  0  0  0  0  0  0  0
   16.9876  -15.4491  -33.4401 C   0  0  0  0  0  0  0  0  0  0  0  0
   18.0111  -16.0262  -34.0864 N   0  0  0  0  0  0  0  0  0  0  0  0
   18.5888  -17.1036  -33.4858 C   0  0  0  0  0  0  0  0  0  0  0  0
   18.1968  -17.6949  -32.2775 C   0  0  0  0  0  0  0  0  0  0  0  0
   18.8235  -18.8314  -31.7654 N   0  0  0  0  0  0  0  0  0  0  0  0
   17.9714  -19.9350  -31.2952 C   0  0  0  0  0  0  0  0  0  0  0  0
   18.4553  -21.2878  -31.8266 C   0  0  0  0  0  0  0  0  0  0  0  0
   19.0157  -21.1433  -33.2344 C   0  0  0  0  0  0  0  0  0  0  0  0
   20.2094  -20.1793  -33.2628 C   0  0  0  0  0  0  0  0  0  0  0  0
   20.2288  -19.1746  -32.0699 C   0  0  0  0  0  0  0  0  0  0  0  0
   21.2503  -18.1068  -32.2291 N   0  0  0  0  0  0  0  0  0  0  0  0
   21.3102  -17.2979  -30.9926 C   0  0  0  0  0  0  0  0  0  0  0  0
   22.2748  -16.1198  -31.1344 C   0  0  0  0  0  0  0  0  0  0  0  0
   23.6703  -16.5944  -31.5111 C   0  0  0  0  0  0  0  0  0  0  0  0
   23.6034  -17.4871  -32.7411 C   0  0  0  0  0  0  0  0  0  0  0  0
   22.5876  -18.6192  -32.5635 C   0  0  0  0  0  0  0  0  0  0  0  0
  1  2  1  0
  2  3  2  0
  2  4  1  0
  4  5  2  0
  5  6  1  0
  6  7  2  0
  7  8  1  0
  8  9  2  0
  9 10  1  0
 10 11  1  0
 11 12  1  0
 12 13  1  0
 13 14  1  0
 14 15  1  0
 15 16  1  0
 16 17  1  0
 17 18  1  0
 18 19  1  0
 19 20  1  0
 20 21  1  0
  9  4  1  0
 15 10  1  0
 21 16  1  0
M  END
$$$$
