
     RDKit          3D

 29 32  0  0  0  0  0  0  0  0999 V2000
    1.2291   29.2981   18.5617 N   0  0  0  0  0  0  0  0  0  0  0  0
    2.1059   29.3913   19.6098 C   0  0  0  0  0  0  0  0  0  0  0  0
    3.2569   28.9898   19.5084 O   0  0  0  0  0  0  0  0  0  0  0  0
    1.5576   30.0076   20.8441 C   0  0  0  0  0  0  0  0  0  0  0  0
    1.0295   31.3065   20.6873 C   0  0  0  0  0  0  0  0  0  0  0  0
    0.5269   32.0066   21.7807 C   0  0  0  0  0  0  0  0  0  0  0  0
    0.5580   31.4155   23.0318 C   0  0  0  0  0  0  0  0  0  0  0  0
    0.0595   32.1259   24.0835 O   0  0  0  0  0  0  0  0  0  0  0  0
    1.0821   30.1354   23.2031 C   0  0  0  0  0  0  0  0  0  0  0  0
    1.5938   29.3920   22.1155 C   0  0  0  0  0  0  0  0  0  0  0  0
    2.0681   28.1022   22.4279 N   0  0  0  0  0  0  0  0  0  0  0  0
    1.7907   27.0161   21.4784 C   0  0  0  0  0  0  0  0  0  0  0  0
    1.9692   25.6670   22.1705 C   0  0  0  0  0  0  0  0  0  0  0  0
    3.3687   25.5552   22.7668 C   0  0  0  0  0  0  0  0  0  0  0  0
    3.6236   26.7316   23.7040 C   0  0  0  0  0  0  0  0  0  0  0  0
    3.4398   28.1083   23.0066 C   0  0  0  0  0  0  0  0  0  0  0  0
    4.5157   28.5576   22.1303 N   0  0  0  0  0  0  0  0  0  0  0  0
    5.8667   28.1816   22.4375 C   0  0  0  0  0  0  0  0  0  0  0  0
    6.2208   28.8938   23.6466 N   0  0  0  0  0  0  0  0  0  0  0  0
    7.6055   28.6453   24.0455 C   0  0  0  0  0  0  0  0  0  0  0  0
    8.6113   29.2567   23.1259 C   0  0  0  0  0  0  0  0  0  0  0  0
    9.3179   28.6366   22.2012 N   0  0  0  0  0  0  0  0  0  0  0  0
   10.0911   29.6076   21.6132 C   0  0  0  0  0  0  0  0  0  0  0  0
   11.0248   29.5035   20.5725 C   0  0  0  0  0  0  0  0  0  0  0  0
   11.6904   30.6611   20.1489 C   0  0  0  0  0  0  0  0  0  0  0  0
   11.4310   31.8959   20.7494 C   0  0  0  0  0  0  0  0  0  0  0  0
   10.5022   32.0190   21.7898 C   0  0  0  0  0  0  0  0  0  0  0  0
    9.8545   30.8490   22.1918 C   0  0  0  0  0  0  0  0  0  0  0  0
    8.9085   30.5982   23.1512 N   0  0  0  0  0  0  0  0  0  0  0  0
  1  2  1  0
  2  3  2  0
  2  4  1  0
  4  5  2  0
  5  6  1  0
  6  7  2  0
  7  8  1  0
  7  9  1  0
  9 10  2  0
 10 11  1  0
 11 12  1  0
 12 13  1  0
 13 14  1  0
 14 15  1  0
 15 16  1  0
 16 17  1  0
 17 18  1  0
 18 19  1  0
 19 20  1  0
 20 21  1  0
 21 22  2  0
 22 23  1  0
 23 24  2  0
 24 25  1  0
 25 26  2  0
 26 27  1  0
 27 28  2  0
 28 29  1  0
 10  4  1  0
 16 11  1  0
 29 21  1  0
 28 23  1  0
M  END
$$$$
