
     RDKit          3D

 19 20  0  0  0  0  0  0  0  0999 V2000
   23.5641   21.5694  -16.9320 C   0  0  0  0  0  0  0  0  0  0  0  0
   23.3073   20.6568  -18.0127 N   0  0  0  0  0  0  0  0  0  0  0  0
   24.3494   20.0668  -18.6963 C   0  0  0  0  0  0  0  0  0  0  0  0
   25.5279   20.3788  -18.5495 O   0  0  0  0  0  0  0  0  0  0  0  0
   23.8982   18.9961  -19.6688 C   0  0  0  0  0  0  0  0  0  0  0  0
   23.7412   17.6392  -19.0188 C   0  0  0  0  0  0  0  0  0  0  0  0
   24.7868   16.7096  -19.1652 C   0  0  0  0  0  0  0  0  0  0  0  0
   24.7018   15.4333  -18.6073 C   0  0  0  0  0  0  0  0  0  0  0  0
   23.5651   15.0638  -17.8987 C   0  0  0  0  0  0  0  0  0  0  0  0
   23.3379   13.8441  -17.3206 O   0  0  0  0  0  0  0  0  0  0  0  0
   24.3754   12.8778  -17.4330 C   0  0  0  0  0  0  0  0  0  0  0  0
   22.5276   15.9893  -17.7370 C   0  0  0  0  0  0  0  0  0  0  0  0
   22.6004   17.2931  -18.2606 C   0  0  0  0  0  0  0  0  0  0  0  0
   21.5534   18.2338  -18.0912 N   0  0  0  0  0  0  0  0  0  0  0  0
   20.5142   18.0509  -19.1189 C   0  0  0  0  0  0  0  0  0  0  0  0
   19.6805   19.3325  -19.2043 C   0  0  0  0  0  0  0  0  0  0  0  0
   19.4652   20.0037  -17.8446 C   0  0  0  0  0  0  0  0  0  0  0  0
   19.6380   19.0183  -16.6965 C   0  0  0  0  0  0  0  0  0  0  0  0
   21.0126   18.3349  -16.7130 C   0  0  0  0  0  0  0  0  0  0  0  0
  1  2  1  0
  2  3  1  0
  3  4  2  0
  3  5  1  0
  5  6  1  0
  6  7  2  0
  7  8  1  0
  8  9  2  0
  9 10  1  0
 10 11  1  0
  9 12  1  0
 12 13  2  0
 13 14  1  0
 14 15  1  0
 15 16  1  0
 16 17  1  0
 17 18  1  0
 18 19  1  0
 13  6  1  0
 19 14  1  0
M  END
$$$$
