
     RDKit          3D

 23 25  0  0  0  0  0  0  0  0999 V2000
  -28.9579   -6.7122   -3.5176 N   0  0  0  0  0  0  0  0  0  0  0  0
  -29.5087   -5.4955   -4.1051 C   0  0  0  0  0  0  0  0  0  0  0  0
  -28.5996   -4.8957   -5.1791 C   0  0  0  0  0  0  0  0  0  0  0  0
  -28.5056   -5.7564   -6.4441 C   0  0  0  0  0  0  0  0  0  0  0  0
  -27.5586   -5.1612   -7.4675 C   0  0  0  0  0  0  0  0  0  0  0  0
  -27.9816   -4.0286   -8.1832 C   0  0  0  0  0  0  0  0  0  0  0  0
  -27.1123   -3.4283   -9.0775 C   0  0  0  0  0  0  0  0  0  0  0  0
  -25.8623   -3.8660   -9.3084 N   0  0  0  0  0  0  0  0  0  0  0  0
  -25.4705   -4.9573   -8.6043 C   0  0  0  0  0  0  0  0  0  0  0  0
  -26.2582   -5.6649   -7.6846 C   0  0  0  0  0  0  0  0  0  0  0  0
  -25.8258   -6.8353   -7.0306 N   0  0  0  0  0  0  0  0  0  0  0  0
  -26.2891   -8.0499   -7.7284 C   0  0  0  0  0  0  0  0  0  0  0  0
  -26.2761   -9.2100   -6.7441 C   0  0  0  0  0  0  0  0  0  0  0  0
  -26.9652  -10.2177   -6.9044 O   0  0  0  0  0  0  0  0  0  0  0  0
  -25.3549   -9.0622   -5.5553 C   0  0  0  0  0  0  0  0  0  0  0  0
  -24.1113   -8.2980   -5.9928 C   0  0  0  0  0  0  0  0  0  0  0  0
  -24.4216   -6.8723   -6.5532 C   0  0  0  0  0  0  0  0  0  0  0  0
  -23.9913   -5.8135   -5.6356 N   0  0  0  0  0  0  0  0  0  0  0  0
  -24.6348   -5.8260   -4.3294 C   0  0  0  0  0  0  0  0  0  0  0  0
  -24.4779   -4.4576   -3.6564 C   0  0  0  0  0  0  0  0  0  0  0  0
  -23.0996   -3.8274   -3.8745 C   0  0  0  0  0  0  0  0  0  0  0  0
  -22.0788   -4.8653   -4.3198 C   0  0  0  0  0  0  0  0  0  0  0  0
  -22.5444   -5.6003   -5.5838 C   0  0  0  0  0  0  0  0  0  0  0  0
  1  2  1  0
  2  3  1  0
  3  4  1  0
  4  5  1  0
  5  6  2  0
  6  7  1  0
  7  8  2  0
  8  9  1  0
  9 10  2  0
 10 11  1  0
 11 12  1  0
 12 13  1  0
 13 14  2  0
 13 15  1  0
 15 16  1  0
 16 17  1  0
 17 18  1  0
 18 19  1  0
 19 20  1  0
 20 21  1  0
 21 22  1  0
 22 23  1  0
 10  5  1  0
 17 11  1  0
 23 18  1  0
M  END
$$$$
