
     RDKit          3D

 27 30  0  0  0  0  0  0  0  0999 V2000
    8.3457   -1.5661   11.7160 N   0  0  0  0  0  0  0  0  0  0  0  0
    7.6318   -0.3829   11.2413 C   0  0  0  0  0  0  0  0  0  0  0  0
    6.8531    0.2761   12.3528 C   0  0  0  0  0  0  0  0  0  0  0  0
    7.5430    1.0432   13.3064 C   0  0  0  0  0  0  0  0  0  0  0  0
    6.8351    1.6418   14.3360 C   0  0  0  0  0  0  0  0  0  0  0  0
    5.5025    1.5291   14.4917 N   0  0  0  0  0  0  0  0  0  0  0  0
    4.8589    0.7732   13.5723 C   0  0  0  0  0  0  0  0  0  0  0  0
    5.4588    0.1409   12.4732 C   0  0  0  0  0  0  0  0  0  0  0  0
    4.7319   -0.6183   11.5284 N   0  0  0  0  0  0  0  0  0  0  0  0
    4.4019   -1.9442   12.1035 C   0  0  0  0  0  0  0  0  0  0  0  0
    3.6375   -2.8119   11.1139 C   0  0  0  0  0  0  0  0  0  0  0  0
    3.7860   -4.0339   11.0615 O   0  0  0  0  0  0  0  0  0  0  0  0
    2.5509   -2.1284   10.3196 C   0  0  0  0  0  0  0  0  0  0  0  0
    3.0626   -0.8100    9.7731 C   0  0  0  0  0  0  0  0  0  0  0  0
    3.6070    0.0863   10.8924 C   0  0  0  0  0  0  0  0  0  0  0  0
    4.0814    1.2663   10.2461 O   0  0  0  0  0  0  0  0  0  0  0  0
    3.5113    2.4635   10.7410 C   0  0  0  0  0  0  0  0  0  0  0  0
    2.2045    2.6736   10.1448 N   0  0  0  0  0  0  0  0  0  0  0  0
    1.1314    2.2781   10.8591 C   0  0  0  0  0  0  0  0  0  0  0  0
    0.3606    1.2467   10.6247 N   0  0  0  0  0  0  0  0  0  0  0  0
   -0.5702    1.2542   11.6360 C   0  0  0  0  0  0  0  0  0  0  0  0
   -1.6309    0.3719   11.8857 C   0  0  0  0  0  0  0  0  0  0  0  0
   -2.4425    0.5986   13.0046 C   0  0  0  0  0  0  0  0  0  0  0  0
   -2.2035    1.6810   13.8557 C   0  0  0  0  0  0  0  0  0  0  0  0
   -1.1510    2.5741   13.6215 C   0  0  0  0  0  0  0  0  0  0  0  0
   -0.3575    2.3231   12.5009 C   0  0  0  0  0  0  0  0  0  0  0  0
    0.7265    2.9707   11.9680 N   0  0  0  0  0  0  0  0  0  0  0  0
  1  2  1  0
  2  3  1  0
  3  4  2  0
  4  5  1  0
  5  6  2  0
  6  7  1  0
  7  8  2  0
  8  9  1  0
  9 10  1  0
 10 11  1  0
 11 12  2  0
 11 13  1  0
 13 14  1  0
 14 15  1  0
 15 16  1  0
 16 17  1  0
 17 18  1  0
 18 19  1  0
 19 20  2  0
 20 21  1  0
 21 22  2  0
 22 23  1  0
 23 24  2  0
 24 25  1  0
 25 26  2  0
 26 27  1  0
  8  3  1  0
 15  9  1  0
 27 19  1  0
 26 21  1  0
M  END
$$$$
