
     RDKit          3D

 27 30  0  0  0  0  0  0  0  0999 V2000
   -7.5965   -8.8105    1.5883 N   0  0  0  0  0  0  0  0  0  0  0  0
   -6.3450   -8.8147    0.8301 C   0  0  0  0  0  0  0  0  0  0  0  0
   -6.5911   -8.9366   -0.6581 C   0  0  0  0  0  0  0  0  0  0  0  0
   -6.9216   -7.7595   -1.3644 C   0  0  0  0  0  0  0  0  0  0  0  0
   -7.1449   -7.7806   -2.7390 C   0  0  0  0  0  0  0  0  0  0  0  0
   -7.0466   -8.9853   -3.4155 C   0  0  0  0  0  0  0  0  0  0  0  0
   -7.2625   -9.0639   -4.7609 O   0  0  0  0  0  0  0  0  0  0  0  0
   -6.7285  -10.1612   -2.7411 C   0  0  0  0  0  0  0  0  0  0  0  0
   -6.4886  -10.1656   -1.3555 C   0  0  0  0  0  0  0  0  0  0  0  0
   -6.1782  -11.3548   -0.6709 N   0  0  0  0  0  0  0  0  0  0  0  0
   -7.3316  -11.8825    0.0997 C   0  0  0  0  0  0  0  0  0  0  0  0
   -7.7235  -13.2900   -0.3201 C   0  0  0  0  0  0  0  0  0  0  0  0
   -8.9004  -13.6523   -0.3906 O   0  0  0  0  0  0  0  0  0  0  0  0
   -6.6111  -14.2799   -0.5776 C   0  0  0  0  0  0  0  0  0  0  0  0
   -5.2412  -13.6238   -0.4971 C   0  0  0  0  0  0  0  0  0  0  0  0
   -5.2367  -12.3146   -1.3009 C   0  0  0  0  0  0  0  0  0  0  0  0
   -3.8002  -11.7123   -1.3503 C   0  0  0  0  0  0  0  0  0  0  0  0
   -3.3814  -11.2804   -0.0130 N   0  0  0  0  0  0  0  0  0  0  0  0
   -2.3474  -10.4240    0.1164 C   0  0  0  0  0  0  0  0  0  0  0  0
   -2.3100   -9.3560    0.8742 N   0  0  0  0  0  0  0  0  0  0  0  0
   -1.0576   -8.8217    0.6893 C   0  0  0  0  0  0  0  0  0  0  0  0
   -0.4809   -7.6711    1.2462 C   0  0  0  0  0  0  0  0  0  0  0  0
    0.8343   -7.3409    0.8941 C   0  0  0  0  0  0  0  0  0  0  0  0
    1.5606   -8.1408    0.0073 C   0  0  0  0  0  0  0  0  0  0  0  0
    1.0025   -9.2931   -0.5589 C   0  0  0  0  0  0  0  0  0  0  0  0
   -0.3102   -9.5958   -0.1919 C   0  0  0  0  0  0  0  0  0  0  0  0
   -1.1573  -10.6184   -0.5318 N   0  0  0  0  0  0  0  0  0  0  0  0
  1  2  1  0
  2  3  1  0
  3  4  2  0
  4  5  1  0
  5  6  2  0
  6  7  1  0
  6  8  1  0
  8  9  2  0
  9 10  1  0
 10 11  1  0
 11 12  1  0
 12 13  2  0
 12 14  1  0
 14 15  1  0
 15 16  1  0
 16 17  1  0
 17 18  1  0
 18 19  1  0
 19 20  2  0
 20 21  1  0
 21 22  2  0
 22 23  1  0
 23 24  2  0
 24 25  1  0
 25 26  2  0
 26 27  1  0
  9  3  1  0
 16 10  1  0
 27 19  1  0
 26 21  1  0
M  END
$$$$
