
     RDKit          3D

 24 26  0  0  0  0  0  0  0  0999 V2000
  -38.3555  -15.5291    9.1163 C   0  0  0  0  0  0  0  0  0  0  0  0
  -37.4239  -14.4978    8.8163 O   0  0  0  0  0  0  0  0  0  0  0  0
  -37.4260  -13.4054    9.6391 C   0  0  0  0  0  0  0  0  0  0  0  0
  -38.2719  -13.1932   10.7180 C   0  0  0  0  0  0  0  0  0  0  0  0
  -38.1599  -12.0184   11.4649 C   0  0  0  0  0  0  0  0  0  0  0  0
  -37.1994  -11.0292   11.1584 C   0  0  0  0  0  0  0  0  0  0  0  0
  -37.2210   -9.7776   12.0081 C   0  0  0  0  0  0  0  0  0  0  0  0
  -38.3980   -8.8627   11.6442 C   0  0  0  0  0  0  0  0  0  0  0  0
  -38.3516   -7.6146   12.4055 N   0  0  0  0  0  0  0  0  0  0  0  0
  -36.3187  -11.2489   10.0818 C   0  0  0  0  0  0  0  0  0  0  0  0
  -35.2886  -10.3940    9.6619 N   0  0  0  0  0  0  0  0  0  0  0  0
  -35.7699   -9.1836    8.9795 C   0  0  0  0  0  0  0  0  0  0  0  0
  -34.6268   -8.5057    8.2405 C   0  0  0  0  0  0  0  0  0  0  0  0
  -34.7890   -7.9369    7.1591 O   0  0  0  0  0  0  0  0  0  0  0  0
  -33.3120   -8.4086    8.9787 C   0  0  0  0  0  0  0  0  0  0  0  0
  -32.9649   -9.7270    9.6609 C   0  0  0  0  0  0  0  0  0  0  0  0
  -34.1293  -10.2204   10.5647 C   0  0  0  0  0  0  0  0  0  0  0  0
  -33.7035  -11.3263   11.4330 N   0  0  0  0  0  0  0  0  0  0  0  0
  -32.9834  -10.9035   12.6350 C   0  0  0  0  0  0  0  0  0  0  0  0
  -32.1893  -12.0355   13.3015 C   0  0  0  0  0  0  0  0  0  0  0  0
  -32.8937  -13.3760   13.1432 C   0  0  0  0  0  0  0  0  0  0  0  0
  -33.1536  -13.6964   11.6684 C   0  0  0  0  0  0  0  0  0  0  0  0
  -33.0925  -12.4629   10.7596 C   0  0  0  0  0  0  0  0  0  0  0  0
  -36.4696  -12.4353    9.3325 C   0  0  0  0  0  0  0  0  0  0  0  0
  1  2  1  0
  2  3  1  0
  3  4  2  0
  4  5  1  0
  5  6  2  0
  6  7  1  0
  7  8  1  0
  8  9  1  0
  6 10  1  0
 10 11  1  0
 11 12  1  0
 12 13  1  0
 13 14  2  0
 13 15  1  0
 15 16  1  0
 16 17  1  0
 17 18  1  0
 18 19  1  0
 19 20  1  0
 20 21  1  0
 21 22  1  0
 22 23  1  0
 10 24  2  0
 24  3  1  0
 17 11  1  0
 23 18  1  0
M  END
$$$$
