
     RDKit          3D

 19 20  0  0  0  0  0  0  0  0999 V2000
    3.6370  -14.7920   -0.0999 N   0  0  0  0  0  0  0  0  0  0  0  0
    4.1441  -15.3097   -1.3653 C   0  0  0  0  0  0  0  0  0  0  0  0
    4.1741  -14.2307   -2.4375 C   0  0  0  0  0  0  0  0  0  0  0  0
    2.7820  -13.8503   -2.8977 C   0  0  0  0  0  0  0  0  0  0  0  0
    2.0252  -14.6705   -3.4214 O   0  0  0  0  0  0  0  0  0  0  0  0
    2.3533  -12.4232   -2.7079 C   0  0  0  0  0  0  0  0  0  0  0  0
    1.9177  -12.1162   -1.3022 C   0  0  0  0  0  0  0  0  0  0  0  0
    2.7111  -11.6401   -0.4872 O   0  0  0  0  0  0  0  0  0  0  0  0
    0.4874  -12.4321   -0.9255 C   0  0  0  0  0  0  0  0  0  0  0  0
    0.3954  -13.7379   -0.1504 C   0  0  0  0  0  0  0  0  0  0  0  0
   -1.0249  -14.1244    0.1143 C   0  0  0  0  0  0  0  0  0  0  0  0
   -1.7715  -13.8044    1.2311 C   0  0  0  0  0  0  0  0  0  0  0  0
   -3.0218  -14.3407    1.0794 N   0  0  0  0  0  0  0  0  0  0  0  0
   -3.1135  -15.0058   -0.1208 C   0  0  0  0  0  0  0  0  0  0  0  0
   -4.1905  -15.6947   -0.6917 C   0  0  0  0  0  0  0  0  0  0  0  0
   -3.9913  -16.2850   -1.9433 C   0  0  0  0  0  0  0  0  0  0  0  0
   -2.7641  -16.1890   -2.5949 C   0  0  0  0  0  0  0  0  0  0  0  0
   -1.6979  -15.4962   -2.0100 C   0  0  0  0  0  0  0  0  0  0  0  0
   -1.8730  -14.8912   -0.7482 C   0  0  0  0  0  0  0  0  0  0  0  0
  1  2  1  0
  2  3  1  0
  3  4  1  0
  4  5  2  0
  4  6  1  0
  6  7  1  0
  7  8  2  0
  7  9  1  0
  9 10  1  0
 10 11  1  0
 11 12  2  0
 12 13  1  0
 13 14  1  0
 14 15  2  0
 15 16  1  0
 16 17  2  0
 17 18  1  0
 18 19  2  0
 19 11  1  0
 19 14  1  0
M  END
$$$$
