
     RDKit          3D

 19 20  0  0  0  0  0  0  0  0999 V2000
    4.7986    2.2031    0.7854 N   0  0  0  0  0  0  0  0  0  0  0  0
    4.1593    3.5180    0.7738 C   0  0  0  0  0  0  0  0  0  0  0  0
    3.5093    3.8650    2.1059 C   0  0  0  0  0  0  0  0  0  0  0  0
    2.1801    3.1636    2.2988 C   0  0  0  0  0  0  0  0  0  0  0  0
    2.0221    2.3467    3.2093 O   0  0  0  0  0  0  0  0  0  0  0  0
    1.0668    3.4928    1.3186 C   0  0  0  0  0  0  0  0  0  0  0  0
   -0.3106    3.2983    1.9379 C   0  0  0  0  0  0  0  0  0  0  0  0
   -0.5803    4.2947    3.0519 C   0  0  0  0  0  0  0  0  0  0  0  0
    0.1532    5.2680    3.2400 O   0  0  0  0  0  0  0  0  0  0  0  0
   -1.8142    4.0499    3.9003 C   0  0  0  0  0  0  0  0  0  0  0  0
   -3.0645    4.3335    3.1387 C   0  0  0  0  0  0  0  0  0  0  0  0
   -3.6040    5.5807    2.8971 C   0  0  0  0  0  0  0  0  0  0  0  0
   -4.7437    5.4214    2.1576 N   0  0  0  0  0  0  0  0  0  0  0  0
   -4.9571    4.0930    1.8943 C   0  0  0  0  0  0  0  0  0  0  0  0
   -5.9824    3.4744    1.1691 C   0  0  0  0  0  0  0  0  0  0  0  0
   -5.9478    2.0788    1.0542 C   0  0  0  0  0  0  0  0  0  0  0  0
   -4.9278    1.3384    1.6431 C   0  0  0  0  0  0  0  0  0  0  0  0
   -3.9132    1.9730    2.3701 C   0  0  0  0  0  0  0  0  0  0  0  0
   -3.9235    3.3804    2.5003 C   0  0  0  0  0  0  0  0  0  0  0  0
  1  2  1  0
  2  3  1  0
  3  4  1  0
  4  5  2  0
  4  6  1  0
  6  7  1  0
  7  8  1  0
  8  9  2  0
  8 10  1  0
 10 11  1  0
 11 12  2  0
 12 13  1  0
 13 14  1  0
 14 15  2  0
 15 16  1  0
 16 17  2  0
 17 18  1  0
 18 19  2  0
 19 11  1  0
 19 14  1  0
M  END
$$$$
