
     RDKit          3D

 28 31  0  0  0  0  0  0  0  0999 V2000
  -13.7654   26.4221   -6.0997 N   0  0  0  0  0  0  0  0  0  0  0  0
  -15.0638   26.3988   -6.5134 C   0  0  0  0  0  0  0  0  0  0  0  0
  -15.8223   27.3267   -6.2558 O   0  0  0  0  0  0  0  0  0  0  0  0
  -15.5216   25.1863   -7.2560 C   0  0  0  0  0  0  0  0  0  0  0  0
  -16.8969   24.9019   -7.1541 C   0  0  0  0  0  0  0  0  0  0  0  0
  -17.4418   23.7751   -7.7647 C   0  0  0  0  0  0  0  0  0  0  0  0
  -16.6192   22.9240   -8.4903 C   0  0  0  0  0  0  0  0  0  0  0  0
  -15.2545   23.2029   -8.6107 C   0  0  0  0  0  0  0  0  0  0  0  0
  -14.6679   24.3317   -8.0003 C   0  0  0  0  0  0  0  0  0  0  0  0
  -13.2940   24.6287   -8.2185 N   0  0  0  0  0  0  0  0  0  0  0  0
  -13.1443   25.6699   -9.2612 C   0  0  0  0  0  0  0  0  0  0  0  0
  -12.1007   25.3456  -10.3198 C   0  0  0  0  0  0  0  0  0  0  0  0
  -12.1397   23.8766  -10.6807 C   0  0  0  0  0  0  0  0  0  0  0  0
  -11.7519   23.0333   -9.4762 C   0  0  0  0  0  0  0  0  0  0  0  0
  -12.3439   23.4936   -8.1318 C   0  0  0  0  0  0  0  0  0  0  0  0
  -11.2712   23.7632   -7.0487 C   0  0  0  0  0  0  0  0  0  0  0  0
  -10.3128   24.9215   -7.3366 C   0  0  0  0  0  0  0  0  0  0  0  0
   -9.3658   25.1838   -6.2466 N   0  0  0  0  0  0  0  0  0  0  0  0
   -8.3930   24.1036   -6.0077 C   0  0  0  0  0  0  0  0  0  0  0  0
   -7.4890   23.7887   -7.1734 C   0  0  0  0  0  0  0  0  0  0  0  0
   -7.8127   22.7321   -7.9888 N   0  0  0  0  0  0  0  0  0  0  0  0
   -7.0130   22.4573   -9.0431 C   0  0  0  0  0  0  0  0  0  0  0  0
   -5.9001   23.1076   -9.4335 N   0  0  0  0  0  0  0  0  0  0  0  0
   -5.6377   24.1340   -8.6125 C   0  0  0  0  0  0  0  0  0  0  0  0
   -4.5965   25.0108   -8.7069 N   0  0  0  0  0  0  0  0  0  0  0  0
   -4.7142   25.9013   -7.6749 C   0  0  0  0  0  0  0  0  0  0  0  0
   -5.7663   25.6472   -6.9251 N   0  0  0  0  0  0  0  0  0  0  0  0
   -6.3515   24.5387   -7.4969 C   0  0  0  0  0  0  0  0  0  0  0  0
  1  2  1  0
  2  3  2  0
  2  4  1  0
  4  5  2  0
  5  6  1  0
  6  7  2  0
  7  8  1  0
  8  9  2  0
  9 10  1  0
 10 11  1  0
 11 12  1  0
 12 13  1  0
 13 14  1  0
 14 15  1  0
 15 16  1  0
 16 17  1  0
 17 18  1  0
 18 19  1  0
 19 20  1  0
 20 21  2  0
 21 22  1  0
 22 23  2  0
 23 24  1  0
 24 25  1  0
 25 26  1  0
 26 27  2  0
 27 28  1  0
  9  4  1  0
 15 10  1  0
 28 20  1  0
 28 24  2  0
M  END
$$$$
