
     RDKit          3D

 19 20  0  0  0  0  0  0  0  0999 V2000
    7.6260   -4.6202    5.6721 N   0  0  0  0  0  0  0  0  0  0  0  0
    8.1331   -5.1378    4.4066 C   0  0  0  0  0  0  0  0  0  0  0  0
    8.1631   -4.0589    3.3344 C   0  0  0  0  0  0  0  0  0  0  0  0
    6.7711   -3.6785    2.8742 C   0  0  0  0  0  0  0  0  0  0  0  0
    6.0143   -4.4987    2.3505 O   0  0  0  0  0  0  0  0  0  0  0  0
    6.3424   -2.2514    3.0640 C   0  0  0  0  0  0  0  0  0  0  0  0
    5.9067   -1.9444    4.4698 C   0  0  0  0  0  0  0  0  0  0  0  0
    6.7002   -1.4683    5.2847 O   0  0  0  0  0  0  0  0  0  0  0  0
    4.4765   -2.2603    4.8465 C   0  0  0  0  0  0  0  0  0  0  0  0
    4.3844   -3.5661    5.6215 C   0  0  0  0  0  0  0  0  0  0  0  0
    2.9641   -3.9526    5.8863 C   0  0  0  0  0  0  0  0  0  0  0  0
    2.2175   -3.6326    7.0030 C   0  0  0  0  0  0  0  0  0  0  0  0
    0.9672   -4.1689    6.8513 N   0  0  0  0  0  0  0  0  0  0  0  0
    0.8755   -4.8340    5.6511 C   0  0  0  0  0  0  0  0  0  0  0  0
   -0.2014   -5.5229    5.0802 C   0  0  0  0  0  0  0  0  0  0  0  0
   -0.0022   -6.1132    3.8286 C   0  0  0  0  0  0  0  0  0  0  0  0
    1.2250   -6.0172    3.1770 C   0  0  0  0  0  0  0  0  0  0  0  0
    2.2912   -5.3244    3.7619 C   0  0  0  0  0  0  0  0  0  0  0  0
    2.1160   -4.7194    5.0237 C   0  0  0  0  0  0  0  0  0  0  0  0
  1  2  1  0
  2  3  1  0
  3  4  1  0
  4  5  2  0
  4  6  1  0
  6  7  1  0
  7  8  2  0
  7  9  1  0
  9 10  1  0
 10 11  1  0
 11 12  2  0
 12 13  1  0
 13 14  1  0
 14 15  2  0
 15 16  1  0
 16 17  2  0
 17 18  1  0
 18 19  2  0
 19 11  1  0
 19 14  1  0
M  END
$$$$
