
     RDKit          3D

 19 20  0  0  0  0  0  0  0  0999 V2000
   -9.2398  -15.9771   34.7733 C   0  0  0  0  0  0  0  0  0  0  0  0
  -10.6852  -15.8129   34.7907 N   0  0  0  0  0  0  0  0  0  0  0  0
  -11.3729  -17.0650   34.4329 C   0  0  0  0  0  0  0  0  0  0  0  0
  -12.7850  -16.7403   33.9372 C   0  0  0  0  0  0  0  0  0  0  0  0
  -13.0489  -15.6653   33.3931 O   0  0  0  0  0  0  0  0  0  0  0  0
  -13.8510  -17.7835   34.0486 C   0  0  0  0  0  0  0  0  0  0  0  0
  -13.5677  -19.1110   34.3739 C   0  0  0  0  0  0  0  0  0  0  0  0
  -14.6042  -20.0385   34.4358 C   0  0  0  0  0  0  0  0  0  0  0  0
  -15.9187  -19.6414   34.1609 C   0  0  0  0  0  0  0  0  0  0  0  0
  -16.8849  -20.6221   34.1962 O   0  0  0  0  0  0  0  0  0  0  0  0
  -16.9026  -21.3258   32.9498 C   0  0  0  0  0  0  0  0  0  0  0  0
  -16.2584  -18.3016   33.8577 C   0  0  0  0  0  0  0  0  0  0  0  0
  -17.5763  -17.8996   33.6148 N   0  0  0  0  0  0  0  0  0  0  0  0
  -18.6082  -18.4129   34.5379 C   0  0  0  0  0  0  0  0  0  0  0  0
  -19.7064  -17.3760   34.8010 C   0  0  0  0  0  0  0  0  0  0  0  0
  -19.1038  -16.0000   35.0680 C   0  0  0  0  0  0  0  0  0  0  0  0
  -18.2045  -15.5337   33.9180 C   0  0  0  0  0  0  0  0  0  0  0  0
  -17.8868  -16.6486   32.9211 C   0  0  0  0  0  0  0  0  0  0  0  0
  -15.1821  -17.3985   33.7919 C   0  0  0  0  0  0  0  0  0  0  0  0
  1  2  1  0
  2  3  1  0
  3  4  1  0
  4  5  2  0
  4  6  1  0
  6  7  2  0
  7  8  1  0
  8  9  2  0
  9 10  1  0
 10 11  1  0
  9 12  1  0
 12 13  1  0
 13 14  1  0
 14 15  1  0
 15 16  1  0
 16 17  1  0
 17 18  1  0
 12 19  2  0
 19  6  1  0
 18 13  1  0
M  END
$$$$
