
     RDKit          3D

 32 35  0  0  0  0  0  0  0  0999 V2000
   14.1046  -16.9170  -10.7874 N   0  0  0  0  0  0  0  0  0  0  0  0
   14.5235  -16.6339   -9.4700 C   0  0  0  0  0  0  0  0  0  0  0  0
   15.6673  -15.8379   -9.2958 C   0  0  0  0  0  0  0  0  0  0  0  0
   16.0655  -15.4188   -8.0237 C   0  0  0  0  0  0  0  0  0  0  0  0
   15.2994  -15.7832   -6.9214 C   0  0  0  0  0  0  0  0  0  0  0  0
   15.8005  -15.3173   -5.2888 S   0  0  0  0  0  0  0  0  0  0  0  0
   14.7633  -14.0317   -4.9646 N   0  0  0  0  0  0  0  0  0  0  0  0
   17.1208  -14.7336   -5.3640 O   0  0  0  0  0  0  0  0  0  0  0  0
   15.4754  -16.3937   -4.3851 O   0  0  0  0  0  0  0  0  0  0  0  0
   14.1421  -16.5494   -7.0817 C   0  0  0  0  0  0  0  0  0  0  0  0
   13.7079  -16.9514   -8.3564 C   0  0  0  0  0  0  0  0  0  0  0  0
   12.5391  -17.7167   -8.4209 N   0  0  0  0  0  0  0  0  0  0  0  0
   12.6761  -19.0344   -9.0775 C   0  0  0  0  0  0  0  0  0  0  0  0
   12.0583  -19.0782  -10.4668 C   0  0  0  0  0  0  0  0  0  0  0  0
   12.4857  -19.8280  -11.3495 O   0  0  0  0  0  0  0  0  0  0  0  0
   10.7626  -18.3230  -10.6673 C   0  0  0  0  0  0  0  0  0  0  0  0
   10.7827  -16.9597   -9.9872 C   0  0  0  0  0  0  0  0  0  0  0  0
   11.2039  -17.0674   -8.5116 C   0  0  0  0  0  0  0  0  0  0  0  0
   11.1070  -15.6899   -7.7938 C   0  0  0  0  0  0  0  0  0  0  0  0
    9.7375  -15.1654   -7.6672 N   0  0  0  0  0  0  0  0  0  0  0  0
    8.8486  -15.9134   -6.8528 C   0  0  0  0  0  0  0  0  0  0  0  0
    9.1816  -16.2977   -5.5529 C   0  0  0  0  0  0  0  0  0  0  0  0
    8.2655  -17.0372   -4.8226 C   0  0  0  0  0  0  0  0  0  0  0  0
    7.0535  -17.4041   -5.2870 N   0  0  0  0  0  0  0  0  0  0  0  0
    6.7380  -16.9944   -6.5380 C   0  0  0  0  0  0  0  0  0  0  0  0
    7.5738  -16.2485   -7.3716 C   0  0  0  0  0  0  0  0  0  0  0  0
    7.2209  -15.8006   -8.6660 N   0  0  0  0  0  0  0  0  0  0  0  0
    6.6815  -14.4234   -8.6417 C   0  0  0  0  0  0  0  0  0  0  0  0
    5.2582  -14.3656   -9.1987 C   0  0  0  0  0  0  0  0  0  0  0  0
    5.1857  -14.9249  -10.6196 C   0  0  0  0  0  0  0  0  0  0  0  0
    6.1384  -16.1002  -10.8384 C   0  0  0  0  0  0  0  0  0  0  0  0
    6.5150  -16.7708   -9.5154 C   0  0  0  0  0  0  0  0  0  0  0  0
  1  2  1  0
  2  3  2  0
  3  4  1  0
  4  5  2  0
  5  6  1  0
  6  7  1  0
  6  8  2  0
  6  9  2  0
  5 10  1  0
 10 11  2  0
 11 12  1  0
 12 13  1  0
 13 14  1  0
 14 15  2  0
 14 16  1  0
 16 17  1  0
 17 18  1  0
 18 19  1  0
 19 20  1  0
 20 21  1  0
 21 22  2  0
 22 23  1  0
 23 24  2  0
 24 25  1  0
 25 26  2  0
 26 27  1  0
 27 28  1  0
 28 29  1  0
 29 30  1  0
 30 31  1  0
 31 32  1  0
 11  2  1  0
 18 12  1  0
 26 21  1  0
 32 27  1  0
M  END
$$$$
