
     RDKit          3D

 19 20  0  0  0  0  0  0  0  0999 V2000
  -14.7409    0.1808   10.5166 N   0  0  0  0  0  0  0  0  0  0  0  0
  -14.2338   -0.3368    9.2512 C   0  0  0  0  0  0  0  0  0  0  0  0
  -14.2038    0.7421    8.1790 C   0  0  0  0  0  0  0  0  0  0  0  0
  -15.5958    1.1226    7.7187 C   0  0  0  0  0  0  0  0  0  0  0  0
  -16.3526    0.3024    7.1951 O   0  0  0  0  0  0  0  0  0  0  0  0
  -16.0245    2.5496    7.9086 C   0  0  0  0  0  0  0  0  0  0  0  0
  -16.4602    2.8567    9.3143 C   0  0  0  0  0  0  0  0  0  0  0  0
  -15.6667    3.3327   10.1293 O   0  0  0  0  0  0  0  0  0  0  0  0
  -17.8904    2.5408    9.6910 C   0  0  0  0  0  0  0  0  0  0  0  0
  -17.9825    1.2350   10.4661 C   0  0  0  0  0  0  0  0  0  0  0  0
  -19.4028    0.8485   10.7308 C   0  0  0  0  0  0  0  0  0  0  0  0
  -20.1494    1.1684   11.8475 C   0  0  0  0  0  0  0  0  0  0  0  0
  -21.3997    0.6321   11.6959 N   0  0  0  0  0  0  0  0  0  0  0  0
  -21.4914   -0.0329   10.4957 C   0  0  0  0  0  0  0  0  0  0  0  0
  -22.5683   -0.7219    9.9248 C   0  0  0  0  0  0  0  0  0  0  0  0
  -22.3691   -1.3122    8.6732 C   0  0  0  0  0  0  0  0  0  0  0  0
  -21.1419   -1.2161    8.0216 C   0  0  0  0  0  0  0  0  0  0  0  0
  -20.0757   -0.5233    8.6065 C   0  0  0  0  0  0  0  0  0  0  0  0
  -20.2509    0.0816    9.8683 C   0  0  0  0  0  0  0  0  0  0  0  0
  1  2  1  0
  2  3  1  0
  3  4  1  0
  4  5  2  0
  4  6  1  0
  6  7  1  0
  7  8  2  0
  7  9  1  0
  9 10  1  0
 10 11  1  0
 11 12  2  0
 12 13  1  0
 13 14  1  0
 14 15  2  0
 15 16  1  0
 16 17  2  0
 17 18  1  0
 18 19  2  0
 19 11  1  0
 19 14  1  0
M  END
$$$$
