
     RDKit          3D

 30 33  0  0  0  0  0  0  0  0999 V2000
  -24.4306   -4.8836   -7.4845 N   0  0  0  0  0  0  0  0  0  0  0  0
  -22.8714   -5.1728   -8.0308 S   0  0  0  0  0  0  0  0  0  0  0  0
  -21.9721   -4.9159   -6.9331 O   0  0  0  0  0  0  0  0  0  0  0  0
  -22.9279   -6.4789   -8.6516 O   0  0  0  0  0  0  0  0  0  0  0  0
  -22.6755   -3.9485   -9.2981 C   0  0  0  0  0  0  0  0  0  0  0  0
  -22.8735   -4.4077  -10.6141 C   0  0  0  0  0  0  0  0  0  0  0  0
  -22.7371   -3.5221  -11.6633 C   0  0  0  0  0  0  0  0  0  0  0  0
  -22.4236   -2.2297  -11.4933 N   0  0  0  0  0  0  0  0  0  0  0  0
  -22.2359   -1.8184  -10.2161 C   0  0  0  0  0  0  0  0  0  0  0  0
  -22.3244   -2.6113   -9.0596 C   0  0  0  0  0  0  0  0  0  0  0  0
  -22.0970   -1.9763   -7.8399 N   0  0  0  0  0  0  0  0  0  0  0  0
  -23.2739   -1.7344   -6.9931 C   0  0  0  0  0  0  0  0  0  0  0  0
  -23.1704   -2.4857   -5.6794 C   0  0  0  0  0  0  0  0  0  0  0  0
  -24.1201   -3.1293   -5.2235 O   0  0  0  0  0  0  0  0  0  0  0  0
  -21.8543   -2.3974   -4.9459 C   0  0  0  0  0  0  0  0  0  0  0  0
  -20.8212   -1.6130   -5.7478 C   0  0  0  0  0  0  0  0  0  0  0  0
  -20.7499   -2.0697   -7.2203 C   0  0  0  0  0  0  0  0  0  0  0  0
  -19.7438   -1.2083   -8.0211 C   0  0  0  0  0  0  0  0  0  0  0  0
  -18.3051   -1.3224   -7.5038 C   0  0  0  0  0  0  0  0  0  0  0  0
  -17.3123   -0.6106   -8.3135 N   0  0  0  0  0  0  0  0  0  0  0  0
  -17.1338   -1.1141   -9.6789 C   0  0  0  0  0  0  0  0  0  0  0  0
  -16.7420   -2.5560   -9.6989 C   0  0  0  0  0  0  0  0  0  0  0  0
  -17.5187   -3.6087  -10.1514 C   0  0  0  0  0  0  0  0  0  0  0  0
  -16.8016   -4.7659  -10.0130 N   0  0  0  0  0  0  0  0  0  0  0  0
  -15.5602   -4.4978   -9.4868 C   0  0  0  0  0  0  0  0  0  0  0  0
  -14.5027   -5.3637   -9.1824 C   0  0  0  0  0  0  0  0  0  0  0  0
  -13.3406   -4.8034   -8.6437 C   0  0  0  0  0  0  0  0  0  0  0  0
  -13.2436   -3.4326   -8.4173 C   0  0  0  0  0  0  0  0  0  0  0  0
  -14.3108   -2.5821   -8.7278 C   0  0  0  0  0  0  0  0  0  0  0  0
  -15.4933   -3.1202   -9.2761 C   0  0  0  0  0  0  0  0  0  0  0  0
  1  2  1  0
  2  3  2  0
  2  4  2  0
  2  5  1  0
  5  6  2  0
  6  7  1  0
  7  8  2  0
  8  9  1  0
  9 10  2  0
 10 11  1  0
 11 12  1  0
 12 13  1  0
 13 14  2  0
 13 15  1  0
 15 16  1  0
 16 17  1  0
 17 18  1  0
 18 19  1  0
 19 20  1  0
 20 21  1  0
 21 22  1  0
 22 23  2  0
 23 24  1  0
 24 25  1  0
 25 26  2  0
 26 27  1  0
 27 28  2  0
 28 29  1  0
 29 30  2  0
 10  5  1  0
 17 11  1  0
 30 22  1  0
 30 25  1  0
M  END
$$$$
