
     RDKit          3D

 28 31  0  0  0  0  0  0  0  0999 V2000
   16.9751    8.8435  -12.7241 C   0  0  0  0  0  0  0  0  0  0  0  0
   16.3982    7.5847  -13.0480 O   0  0  0  0  0  0  0  0  0  0  0  0
   16.2386    6.6947  -12.0209 C   0  0  0  0  0  0  0  0  0  0  0  0
   16.5937    6.9069  -10.6917 C   0  0  0  0  0  0  0  0  0  0  0  0
   16.3739    5.9060   -9.7425 C   0  0  0  0  0  0  0  0  0  0  0  0
   15.8284    4.6742  -10.1168 C   0  0  0  0  0  0  0  0  0  0  0  0
   15.5622    3.7066   -9.1222 N   0  0  0  0  0  0  0  0  0  0  0  0
   15.3895    4.4699  -11.4476 C   0  0  0  0  0  0  0  0  0  0  0  0
   14.7327    3.2780  -11.7995 N   0  0  0  0  0  0  0  0  0  0  0  0
   15.0857    2.6912  -13.1038 C   0  0  0  0  0  0  0  0  0  0  0  0
   14.8316    1.1895  -13.0583 C   0  0  0  0  0  0  0  0  0  0  0  0
   15.3839    0.4032  -13.8286 O   0  0  0  0  0  0  0  0  0  0  0  0
   13.8433    0.7115  -12.0177 C   0  0  0  0  0  0  0  0  0  0  0  0
   12.7639    1.7735  -11.8668 C   0  0  0  0  0  0  0  0  0  0  0  0
   13.3262    3.1174  -11.3348 C   0  0  0  0  0  0  0  0  0  0  0  0
   12.3859    4.2606  -11.7744 C   0  0  0  0  0  0  0  0  0  0  0  0
   12.2611    5.3714  -10.7251 C   0  0  0  0  0  0  0  0  0  0  0  0
   11.3137    6.3923  -11.1507 N   0  0  0  0  0  0  0  0  0  0  0  0
    9.9549    6.0933  -11.1161 C   0  0  0  0  0  0  0  0  0  0  0  0
    9.4617    5.1577  -10.2593 N   0  0  0  0  0  0  0  0  0  0  0  0
    8.1315    4.9188  -10.2484 C   0  0  0  0  0  0  0  0  0  0  0  0
    7.1716    5.4838  -11.0084 N   0  0  0  0  0  0  0  0  0  0  0  0
    7.7068    6.3869  -11.8407 C   0  0  0  0  0  0  0  0  0  0  0  0
    7.0451    7.1534  -12.7549 N   0  0  0  0  0  0  0  0  0  0  0  0
    7.9744    7.9275  -13.3955 C   0  0  0  0  0  0  0  0  0  0  0  0
    9.1924    7.7053  -12.9476 N   0  0  0  0  0  0  0  0  0  0  0  0
    9.0374    6.7461  -11.9633 C   0  0  0  0  0  0  0  0  0  0  0  0
   15.6406    5.4836  -12.3874 C   0  0  0  0  0  0  0  0  0  0  0  0
  1  2  1  0
  2  3  1  0
  3  4  2  0
  4  5  1  0
  5  6  2  0
  6  7  1  0
  6  8  1  0
  8  9  1  0
  9 10  1  0
 10 11  1  0
 11 12  2  0
 11 13  1  0
 13 14  1  0
 14 15  1  0
 15 16  1  0
 16 17  1  0
 17 18  1  0
 18 19  1  0
 19 20  2  0
 20 21  1  0
 21 22  2  0
 22 23  1  0
 23 24  1  0
 24 25  1  0
 25 26  2  0
 26 27  1  0
  8 28  2  0
 28  3  1  0
 15  9  1  0
 27 19  1  0
 27 23  2  0
M  END
$$$$
