
     RDKit          3D

 16 17  0  0  0  0  0  0  0  0999 V2000
   10.4728    9.0929    5.2869 C   0  0  0  0  0  0  0  0  0  0  0  0
    9.0651    8.8954    5.3062 O   0  0  0  0  0  0  0  0  0  0  0  0
    8.3349    9.7399    6.0960 C   0  0  0  0  0  0  0  0  0  0  0  0
    8.8380   10.7652    6.8832 C   0  0  0  0  0  0  0  0  0  0  0  0
    7.9637   11.5542    7.6360 C   0  0  0  0  0  0  0  0  0  0  0  0
    6.5654   11.3537    7.6147 C   0  0  0  0  0  0  0  0  0  0  0  0
    5.6924   12.2580    8.4560 C   0  0  0  0  0  0  0  0  0  0  0  0
    6.1864   13.6364    8.5447 N   0  0  0  0  0  0  0  0  0  0  0  0
    6.0547   10.2830    6.8518 C   0  0  0  0  0  0  0  0  0  0  0  0
    4.7113    9.8977    6.7679 N   0  0  0  0  0  0  0  0  0  0  0  0
    4.0409    9.5173    8.0120 C   0  0  0  0  0  0  0  0  0  0  0  0
    2.8009    8.6882    7.6737 C   0  0  0  0  0  0  0  0  0  0  0  0
    1.8891    9.4338    6.6992 C   0  0  0  0  0  0  0  0  0  0  0  0
    2.6585    9.8583    5.4486 C   0  0  0  0  0  0  0  0  0  0  0  0
    3.9109   10.6603    5.8061 C   0  0  0  0  0  0  0  0  0  0  0  0
    6.9576    9.5101    6.0910 C   0  0  0  0  0  0  0  0  0  0  0  0
  1  2  1  0
  2  3  1  0
  3  4  2  0
  4  5  1  0
  5  6  2  0
  6  7  1  0
  7  8  1  0
  6  9  1  0
  9 10  1  0
 10 11  1  0
 11 12  1  0
 12 13  1  0
 13 14  1  0
 14 15  1  0
  9 16  2  0
 16  3  1  0
 15 10  1  0
M  END
$$$$
