
     RDKit          3D

 26 28  0  0  0  0  0  0  0  0999 V2000
  -26.3573    9.2719   35.7750 C   0  0  0  0  0  0  0  0  0  0  0  0
  -26.8306    8.4442   34.6958 N   0  0  0  0  0  0  0  0  0  0  0  0
  -26.9386    7.0727   34.8447 C   0  0  0  0  0  0  0  0  0  0  0  0
  -26.7480    6.5086   35.9182 O   0  0  0  0  0  0  0  0  0  0  0  0
  -27.3550    6.3588   33.5702 C   0  0  0  0  0  0  0  0  0  0  0  0
  -26.8138    4.9526   33.4319 C   0  0  0  0  0  0  0  0  0  0  0  0
  -27.5560    3.9097   34.0228 C   0  0  0  0  0  0  0  0  0  0  0  0
  -27.1971    2.5727   33.8494 C   0  0  0  0  0  0  0  0  0  0  0  0
  -26.0942    2.2544   33.0696 C   0  0  0  0  0  0  0  0  0  0  0  0
  -25.6367    0.9942   32.7953 O   0  0  0  0  0  0  0  0  0  0  0  0
  -26.3377   -0.0860   33.3982 C   0  0  0  0  0  0  0  0  0  0  0  0
  -25.3469    3.2882   32.4959 C   0  0  0  0  0  0  0  0  0  0  0  0
  -25.6551    4.6492   32.6898 C   0  0  0  0  0  0  0  0  0  0  0  0
  -24.8304    5.6193   32.1332 N   0  0  0  0  0  0  0  0  0  0  0  0
  -24.7525    5.7233   30.6876 C   0  0  0  0  0  0  0  0  0  0  0  0
  -25.9323    6.3655   30.2171 O   0  0  0  0  0  0  0  0  0  0  0  0
  -23.5413    6.5425   30.2392 C   0  0  0  0  0  0  0  0  0  0  0  0
  -23.4847    7.9176   30.9126 C   0  0  0  0  0  0  0  0  0  0  0  0
  -24.1168    7.9089   32.3082 C   0  0  0  0  0  0  0  0  0  0  0  0
  -24.0176    6.5097   32.9795 C   0  0  0  0  0  0  0  0  0  0  0  0
  -22.5852    6.2156   33.2594 N   0  0  0  0  0  0  0  0  0  0  0  0
  -22.3704    4.8268   33.6622 C   0  0  0  0  0  0  0  0  0  0  0  0
  -20.8730    4.4976   33.7429 C   0  0  0  0  0  0  0  0  0  0  0  0
  -20.0313    5.6186   34.3470 C   0  0  0  0  0  0  0  0  0  0  0  0
  -20.9038    6.5803   35.1321 C   0  0  0  0  0  0  0  0  0  0  0  0
  -22.0195    7.1557   34.2504 C   0  0  0  0  0  0  0  0  0  0  0  0
  1  2  1  0
  2  3  1  0
  3  4  2  0
  3  5  1  0
  5  6  1  0
  6  7  2  0
  7  8  1  0
  8  9  2  0
  9 10  1  0
 10 11  1  0
  9 12  1  0
 12 13  2  0
 13 14  1  0
 14 15  1  0
 15 16  1  0
 15 17  1  0
 17 18  1  0
 18 19  1  0
 19 20  1  0
 20 21  1  0
 21 22  1  0
 22 23  1  0
 23 24  1  0
 24 25  1  0
 25 26  1  0
 13  6  1  0
 20 14  1  0
 26 21  1  0
M  END
$$$$
