
     RDKit          3D

 29 32  0  0  0  0  0  0  0  0999 V2000
   47.6442   13.2526  -14.4676 N   0  0  0  0  0  0  0  0  0  0  0  0
   47.3434   13.1701  -15.8988 C   0  0  0  0  0  0  0  0  0  0  0  0
   47.3581   14.5341  -16.5569 C   0  0  0  0  0  0  0  0  0  0  0  0
   46.2937   15.4147  -16.2572 C   0  0  0  0  0  0  0  0  0  0  0  0
   46.2011   16.6674  -16.8571 C   0  0  0  0  0  0  0  0  0  0  0  0
   47.1775   17.0479  -17.7694 C   0  0  0  0  0  0  0  0  0  0  0  0
   47.0884   18.6259  -18.5661 S   0  0  0  0  0  0  0  0  0  0  0  0
   48.2817   19.4897  -17.7515 N   0  0  0  0  0  0  0  0  0  0  0  0
   45.8414   19.2582  -18.2000 O   0  0  0  0  0  0  0  0  0  0  0  0
   47.5065   18.4656  -19.9377 O   0  0  0  0  0  0  0  0  0  0  0  0
   48.2325   16.1881  -18.0908 C   0  0  0  0  0  0  0  0  0  0  0  0
   48.3521   14.9232  -17.4863 C   0  0  0  0  0  0  0  0  0  0  0  0
   49.4295   14.0884  -17.7987 N   0  0  0  0  0  0  0  0  0  0  0  0
   49.8553   14.0332  -19.2024 C   0  0  0  0  0  0  0  0  0  0  0  0
   50.4376   12.6487  -19.4936 C   0  0  0  0  0  0  0  0  0  0  0  0
   51.2787   12.0974  -18.3417 C   0  0  0  0  0  0  0  0  0  0  0  0
   51.7310   13.2075  -17.4016 C   0  0  0  0  0  0  0  0  0  0  0  0
   50.5260   13.9581  -16.7863 C   0  0  0  0  0  0  0  0  0  0  0  0
   50.9720   15.3135  -16.1700 C   0  0  0  0  0  0  0  0  0  0  0  0
   51.9131   15.1469  -15.0622 N   0  0  0  0  0  0  0  0  0  0  0  0
   53.2275   15.3376  -15.2748 C   0  0  0  0  0  0  0  0  0  0  0  0
   53.8306   15.7756  -16.3531 N   0  0  0  0  0  0  0  0  0  0  0  0
   55.1711   15.7744  -16.0541 C   0  0  0  0  0  0  0  0  0  0  0  0
   56.2686   16.1441  -16.8444 C   0  0  0  0  0  0  0  0  0  0  0  0
   57.5537   16.0489  -16.2949 C   0  0  0  0  0  0  0  0  0  0  0  0
   57.7414   15.5956  -14.9863 C   0  0  0  0  0  0  0  0  0  0  0  0
   56.6579   15.2222  -14.1820 C   0  0  0  0  0  0  0  0  0  0  0  0
   55.3898   15.3265  -14.7565 C   0  0  0  0  0  0  0  0  0  0  0  0
   54.1314   15.0585  -14.2839 N   0  0  0  0  0  0  0  0  0  0  0  0
  1  2  1  0
  2  3  1  0
  3  4  2  0
  4  5  1  0
  5  6  2  0
  6  7  1  0
  7  8  1  0
  7  9  2  0
  7 10  2  0
  6 11  1  0
 11 12  2  0
 12 13  1  0
 13 14  1  0
 14 15  1  0
 15 16  1  0
 16 17  1  0
 17 18  1  0
 18 19  1  0
 19 20  1  0
 20 21  1  0
 21 22  2  0
 22 23  1  0
 23 24  2  0
 24 25  1  0
 25 26  2  0
 26 27  1  0
 27 28  2  0
 28 29  1  0
 12  3  1  0
 18 13  1  0
 29 21  1  0
 28 23  1  0
M  END
$$$$
