
     RDKit          3D

 30 33  0  0  0  0  0  0  0  0999 V2000
    8.4454   -7.4521  -27.3528 N   0  0  0  0  0  0  0  0  0  0  0  0
    8.6360   -6.2393  -28.0409 C   0  0  0  0  0  0  0  0  0  0  0  0
    7.8599   -5.1291  -27.6829 C   0  0  0  0  0  0  0  0  0  0  0  0
    7.8875   -3.9658  -28.4503 C   0  0  0  0  0  0  0  0  0  0  0  0
    8.6639   -3.9342  -29.6071 C   0  0  0  0  0  0  0  0  0  0  0  0
    8.7332   -2.4658  -30.5940 S   0  0  0  0  0  0  0  0  0  0  0  0
    7.7063   -2.8604  -31.8674 N   0  0  0  0  0  0  0  0  0  0  0  0
   10.0740   -2.3391  -31.1135 O   0  0  0  0  0  0  0  0  0  0  0  0
    8.0738   -1.3983  -29.8781 O   0  0  0  0  0  0  0  0  0  0  0  0
    9.4254   -5.0414  -29.9958 C   0  0  0  0  0  0  0  0  0  0  0  0
    9.4256   -6.2086  -29.2194 C   0  0  0  0  0  0  0  0  0  0  0  0
   10.2181   -7.3176  -29.5599 N   0  0  0  0  0  0  0  0  0  0  0  0
   10.1899   -7.7328  -30.9741 C   0  0  0  0  0  0  0  0  0  0  0  0
   10.5123   -9.2190  -31.0550 C   0  0  0  0  0  0  0  0  0  0  0  0
   10.1732   -9.9147  -32.0127 O   0  0  0  0  0  0  0  0  0  0  0  0
   11.2807   -9.7971  -29.8865 C   0  0  0  0  0  0  0  0  0  0  0  0
   12.2404   -8.7350  -29.3625 C   0  0  0  0  0  0  0  0  0  0  0  0
   11.5117   -7.4770  -28.8357 C   0  0  0  0  0  0  0  0  0  0  0  0
   12.3951   -6.2109  -28.9199 C   0  0  0  0  0  0  0  0  0  0  0  0
   13.6662   -6.2449  -28.0640 C   0  0  0  0  0  0  0  0  0  0  0  0
   14.7584   -6.9903  -28.6611 N   0  0  0  0  0  0  0  0  0  0  0  0
   15.3335   -6.6565  -29.8334 C   0  0  0  0  0  0  0  0  0  0  0  0
   15.8588   -7.4952  -30.6913 N   0  0  0  0  0  0  0  0  0  0  0  0
   16.3094   -6.7212  -31.7333 C   0  0  0  0  0  0  0  0  0  0  0  0
   16.9430   -7.0996  -32.9257 C   0  0  0  0  0  0  0  0  0  0  0  0
   17.3056   -6.1012  -33.8392 C   0  0  0  0  0  0  0  0  0  0  0  0
   17.0440   -4.7548  -33.5704 C   0  0  0  0  0  0  0  0  0  0  0  0
   16.4136   -4.3577  -32.3851 C   0  0  0  0  0  0  0  0  0  0  0  0
   16.0621   -5.3741  -31.4948 C   0  0  0  0  0  0  0  0  0  0  0  0
   15.4501   -5.3624  -30.2682 N   0  0  0  0  0  0  0  0  0  0  0  0
  1  2  1  0
  2  3  2  0
  3  4  1  0
  4  5  2  0
  5  6  1  0
  6  7  1  0
  6  8  2  0
  6  9  2  0
  5 10  1  0
 10 11  2  0
 11 12  1  0
 12 13  1  0
 13 14  1  0
 14 15  2  0
 14 16  1  0
 16 17  1  0
 17 18  1  0
 18 19  1  0
 19 20  1  0
 20 21  1  0
 21 22  1  0
 22 23  2  0
 23 24  1  0
 24 25  2  0
 25 26  1  0
 26 27  2  0
 27 28  1  0
 28 29  2  0
 29 30  1  0
 11  2  1  0
 18 12  1  0
 30 22  1  0
 29 24  1  0
M  END
$$$$
