
     RDKit          3D

 16 17  0  0  0  0  0  0  0  0999 V2000
   12.1930    3.6005  -41.8514 N   0  0  0  0  0  0  0  0  0  0  0  0
   12.7546    2.5097  -41.0662 C   0  0  0  0  0  0  0  0  0  0  0  0
   11.6582    1.8221  -40.2558 C   0  0  0  0  0  0  0  0  0  0  0  0
   12.2407    0.7400  -39.3557 C   0  0  0  0  0  0  0  0  0  0  0  0
   11.1732   -0.1486  -38.7475 C   0  0  0  0  0  0  0  0  0  0  0  0
   11.1245   -1.3482  -39.0346 O   0  0  0  0  0  0  0  0  0  0  0  0
   10.1975    0.4757  -37.7668 C   0  0  0  0  0  0  0  0  0  0  0  0
    8.8917    0.8191  -38.4047 C   0  0  0  0  0  0  0  0  0  0  0  0
    8.0248   -0.0668  -39.0168 C   0  0  0  0  0  0  0  0  0  0  0  0
    6.9399    0.6296  -39.4714 N   0  0  0  0  0  0  0  0  0  0  0  0
    7.0674    1.9623  -39.1602 C   0  0  0  0  0  0  0  0  0  0  0  0
    6.2052    3.0337  -39.4230 C   0  0  0  0  0  0  0  0  0  0  0  0
    6.5931    4.3017  -38.9821 C   0  0  0  0  0  0  0  0  0  0  0  0
    7.7948    4.4872  -38.3045 C   0  0  0  0  0  0  0  0  0  0  0  0
    8.6445    3.4044  -38.0488 C   0  0  0  0  0  0  0  0  0  0  0  0
    8.2799    2.1133  -38.4854 C   0  0  0  0  0  0  0  0  0  0  0  0
  1  2  1  0
  2  3  1  0
  3  4  1  0
  4  5  1  0
  5  6  2  0
  5  7  1  0
  7  8  1  0
  8  9  2  0
  9 10  1  0
 10 11  1  0
 11 12  2  0
 12 13  1  0
 13 14  2  0
 14 15  1  0
 15 16  2  0
 16  8  1  0
 16 11  1  0
M  END
$$$$
