
     RDKit          3D

 15 16  0  0  0  0  0  0  0  0999 V2000
   49.9808  -20.6647   32.3824 N   0  0  0  0  0  0  0  0  0  0  0  0
   49.2940  -21.4783   33.2328 C   0  0  0  0  0  0  0  0  0  0  0  0
   48.9515  -21.0702   34.3374 O   0  0  0  0  0  0  0  0  0  0  0  0
   48.9802  -22.8671   32.7644 C   0  0  0  0  0  0  0  0  0  0  0  0
   48.1056  -23.6045   33.5856 C   0  0  0  0  0  0  0  0  0  0  0  0
   47.7336  -24.9065   33.2545 C   0  0  0  0  0  0  0  0  0  0  0  0
   48.2345  -25.4921   32.0992 C   0  0  0  0  0  0  0  0  0  0  0  0
   49.1071  -24.7769   31.2757 C   0  0  0  0  0  0  0  0  0  0  0  0
   49.4977  -23.4557   31.5821 C   0  0  0  0  0  0  0  0  0  0  0  0
   50.4101  -22.7583   30.7382 N   0  0  0  0  0  0  0  0  0  0  0  0
   49.9286  -22.6440   29.3459 C   0  0  0  0  0  0  0  0  0  0  0  0
   50.8641  -21.7116   28.5748 C   0  0  0  0  0  0  0  0  0  0  0  0
   52.3098  -22.2024   28.6437 C   0  0  0  0  0  0  0  0  0  0  0  0
   52.7470  -22.4186   30.0920 C   0  0  0  0  0  0  0  0  0  0  0  0
   51.7702  -23.3296   30.8372 C   0  0  0  0  0  0  0  0  0  0  0  0
  1  2  1  0
  2  3  2  0
  2  4  1  0
  4  5  2  0
  5  6  1  0
  6  7  2  0
  7  8  1  0
  8  9  2  0
  9 10  1  0
 10 11  1  0
 11 12  1  0
 12 13  1  0
 13 14  1  0
 14 15  1  0
  9  4  1  0
 15 10  1  0
M  END
$$$$
