
     RDKit          3D

 31 33  0  0  0  0  0  0  0  0999 V2000
    0.7494   -7.3283  -16.4865 N   0  0  0  0  0  0  0  0  0  0  0  0
    1.9968   -6.5933  -16.6801 C   0  0  0  0  0  0  0  0  0  0  0  0
    2.5025   -6.7769  -18.1100 C   0  0  0  0  0  0  0  0  0  0  0  0
    3.8539   -6.0935  -18.3522 C   0  0  0  0  0  0  0  0  0  0  0  0
    3.8095   -4.5796  -18.2715 C   0  0  0  0  0  0  0  0  0  0  0  0
    3.0994   -3.8785  -19.2661 C   0  0  0  0  0  0  0  0  0  0  0  0
    3.0306   -2.4872  -19.2527 C   0  0  0  0  0  0  0  0  0  0  0  0
    3.6693   -1.7864  -18.2334 C   0  0  0  0  0  0  0  0  0  0  0  0
    3.6252   -0.0217  -18.2208 S   0  0  0  0  0  0  0  0  0  0  0  0
    2.2461    0.2875  -17.3164 N   0  0  0  0  0  0  0  0  0  0  0  0
    3.3458    0.4593  -19.5534 O   0  0  0  0  0  0  0  0  0  0  0  0
    4.7340    0.4747  -17.4384 O   0  0  0  0  0  0  0  0  0  0  0  0
    4.3917   -2.4611  -17.2459 C   0  0  0  0  0  0  0  0  0  0  0  0
    4.4735   -3.8620  -17.2505 C   0  0  0  0  0  0  0  0  0  0  0  0
    5.2014   -4.5540  -16.2617 N   0  0  0  0  0  0  0  0  0  0  0  0
    4.5362   -4.5470  -14.9435 C   0  0  0  0  0  0  0  0  0  0  0  0
    5.2817   -3.6838  -13.9322 C   0  0  0  0  0  0  0  0  0  0  0  0
    6.7215   -4.1531  -13.7392 C   0  0  0  0  0  0  0  0  0  0  0  0
    7.2909   -4.8418  -14.9795 C   0  0  0  0  0  0  0  0  0  0  0  0
    6.6676   -4.2920  -16.2753 C   0  0  0  0  0  0  0  0  0  0  0  0
    7.3363   -4.9621  -17.5016 C   0  0  0  0  0  0  0  0  0  0  0  0
    8.7233   -4.5475  -17.6786 N   0  0  0  0  0  0  0  0  0  0  0  0
    9.6738   -5.4278  -18.1547 C   0  0  0  0  0  0  0  0  0  0  0  0
    9.4619   -6.6171  -18.3593 O   0  0  0  0  0  0  0  0  0  0  0  0
   11.0151   -4.8503  -18.4509 C   0  0  0  0  0  0  0  0  0  0  0  0
   11.5068   -3.7268  -17.7690 C   0  0  0  0  0  0  0  0  0  0  0  0
   12.7758   -3.2272  -18.0737 C   0  0  0  0  0  0  0  0  0  0  0  0
   13.5468   -3.8529  -19.0480 C   0  0  0  0  0  0  0  0  0  0  0  0
   14.7636   -3.3718  -19.3334 F   0  0  0  0  0  0  0  0  0  0  0  0
   13.0779   -4.9746  -19.7222 C   0  0  0  0  0  0  0  0  0  0  0  0
   11.8111   -5.4784  -19.4204 C   0  0  0  0  0  0  0  0  0  0  0  0
  1  2  1  0
  2  3  1  0
  3  4  1  0
  4  5  1  0
  5  6  2  0
  6  7  1  0
  7  8  2  0
  8  9  1  0
  9 10  1  0
  9 11  2  0
  9 12  2  0
  8 13  1  0
 13 14  2  0
 14 15  1  0
 15 16  1  0
 16 17  1  0
 17 18  1  0
 18 19  1  0
 19 20  1  0
 20 21  1  0
 21 22  1  0
 22 23  1  0
 23 24  2  0
 23 25  1  0
 25 26  2  0
 26 27  1  0
 27 28  2  0
 28 29  1  0
 28 30  1  0
 30 31  2  0
 14  5  1  0
 20 15  1  0
 31 25  1  0
M  END
$$$$
