
     RDKit          3D

 17 18  0  0  0  0  0  0  0  0999 V2000
   33.4500    5.9479  -62.7016 C   0  0  0  0  0  0  0  0  0  0  0  0
   33.8458    7.2149  -62.1130 N   0  0  0  0  0  0  0  0  0  0  0  0
   32.8736    8.0412  -61.5160 C   0  0  0  0  0  0  0  0  0  0  0  0
   31.6414    7.5328  -61.0769 C   0  0  0  0  0  0  0  0  0  0  0  0
   30.6860    8.3544  -60.4713 C   0  0  0  0  0  0  0  0  0  0  0  0
   30.9432    9.7039  -60.2588 C   0  0  0  0  0  0  0  0  0  0  0  0
   29.9250   10.3970  -59.6654 O   0  0  0  0  0  0  0  0  0  0  0  0
   30.1509   11.7785  -59.4149 C   0  0  0  0  0  0  0  0  0  0  0  0
   32.1794   10.2197  -60.6395 C   0  0  0  0  0  0  0  0  0  0  0  0
   33.1649    9.4068  -61.2408 C   0  0  0  0  0  0  0  0  0  0  0  0
   34.3911   10.0425  -61.5267 N   0  0  0  0  0  0  0  0  0  0  0  0
   35.6000    9.4081  -61.0013 C   0  0  0  0  0  0  0  0  0  0  0  0
   36.6666   10.4926  -60.8273 C   0  0  0  0  0  0  0  0  0  0  0  0
   36.6537   11.5607  -61.9223 C   0  0  0  0  0  0  0  0  0  0  0  0
   35.8768   11.1291  -63.1478 C   0  0  0  0  0  0  0  0  0  0  0  0
   36.3175   11.3127  -64.2836 O   0  0  0  0  0  0  0  0  0  0  0  0
   34.4897   10.5456  -62.9067 C   0  0  0  0  0  0  0  0  0  0  0  0
  1  2  1  0
  2  3  1  0
  3  4  2  0
  4  5  1  0
  5  6  2  0
  6  7  1  0
  7  8  1  0
  6  9  1  0
  9 10  2  0
 10 11  1  0
 11 12  1  0
 12 13  1  0
 13 14  1  0
 14 15  1  0
 15 16  2  0
 15 17  1  0
 10  3  1  0
 17 11  1  0
M  END
$$$$
