
     RDKit          3D

 32 35  0  0  0  0  0  0  0  0999 V2000
   40.1988   13.3645  -21.0277 C   0  0  0  0  0  0  0  0  0  0  0  0
   40.3652   11.9331  -21.0267 N   0  0  0  0  0  0  0  0  0  0  0  0
   41.3609   11.3271  -20.2882 C   0  0  0  0  0  0  0  0  0  0  0  0
   42.2089   11.9590  -19.6633 O   0  0  0  0  0  0  0  0  0  0  0  0
   41.3287    9.8091  -20.3273 C   0  0  0  0  0  0  0  0  0  0  0  0
   40.9145    9.1920  -19.0100 C   0  0  0  0  0  0  0  0  0  0  0  0
   39.5793    9.3565  -18.5918 C   0  0  0  0  0  0  0  0  0  0  0  0
   39.1137    8.7642  -17.4166 C   0  0  0  0  0  0  0  0  0  0  0  0
   39.9681    7.9813  -16.6515 C   0  0  0  0  0  0  0  0  0  0  0  0
   39.6476    7.3377  -15.4871 O   0  0  0  0  0  0  0  0  0  0  0  0
   38.3614    7.6093  -14.9386 C   0  0  0  0  0  0  0  0  0  0  0  0
   41.2913    7.8066  -17.0686 C   0  0  0  0  0  0  0  0  0  0  0  0
   41.7990    8.4162  -18.2294 C   0  0  0  0  0  0  0  0  0  0  0  0
   43.1450    8.2780  -18.6149 N   0  0  0  0  0  0  0  0  0  0  0  0
   43.7000    6.9107  -18.5866 C   0  0  0  0  0  0  0  0  0  0  0  0
   44.4129    6.5819  -17.2872 C   0  0  0  0  0  0  0  0  0  0  0  0
   44.3785    5.4535  -16.7933 O   0  0  0  0  0  0  0  0  0  0  0  0
   45.2863    7.6587  -16.6996 C   0  0  0  0  0  0  0  0  0  0  0  0
   44.5576    8.9928  -16.7279 C   0  0  0  0  0  0  0  0  0  0  0  0
   44.0435    9.3530  -18.1387 C   0  0  0  0  0  0  0  0  0  0  0  0
   45.1688    9.6090  -19.0507 N   0  0  0  0  0  0  0  0  0  0  0  0
   45.5359   11.0297  -19.0584 C   0  0  0  0  0  0  0  0  0  0  0  0
   46.2072   11.6195  -17.9279 N   0  0  0  0  0  0  0  0  0  0  0  0
   47.4777   11.2931  -17.6159 C   0  0  0  0  0  0  0  0  0  0  0  0
   48.3633   12.0636  -17.0408 N   0  0  0  0  0  0  0  0  0  0  0  0
   49.4739   11.2732  -16.8682 C   0  0  0  0  0  0  0  0  0  0  0  0
   50.7096   11.5800  -16.2833 C   0  0  0  0  0  0  0  0  0  0  0  0
   51.6857   10.5769  -16.2085 C   0  0  0  0  0  0  0  0  0  0  0  0
   51.4341    9.2926  -16.6977 C   0  0  0  0  0  0  0  0  0  0  0  0
   50.2099    8.9695  -17.2917 C   0  0  0  0  0  0  0  0  0  0  0  0
   49.2582    9.9889  -17.3579 C   0  0  0  0  0  0  0  0  0  0  0  0
   47.9836   10.0407  -17.8477 N   0  0  0  0  0  0  0  0  0  0  0  0
  1  2  1  0
  2  3  1  0
  3  4  2  0
  3  5  1  0
  5  6  1  0
  6  7  2  0
  7  8  1  0
  8  9  2  0
  9 10  1  0
 10 11  1  0
  9 12  1  0
 12 13  2  0
 13 14  1  0
 14 15  1  0
 15 16  1  0
 16 17  2  0
 16 18  1  0
 18 19  1  0
 19 20  1  0
 20 21  1  0
 21 22  1  0
 22 23  1  0
 23 24  1  0
 24 25  2  0
 25 26  1  0
 26 27  2  0
 27 28  1  0
 28 29  2  0
 29 30  1  0
 30 31  2  0
 31 32  1  0
 13  6  1  0
 20 14  1  0
 32 24  1  0
 31 26  1  0
M  END
$$$$
