
     RDKit          3D

 33 36  0  0  0  0  0  0  0  0999 V2000
   12.7552    0.2441  -35.0980 N   0  0  0  0  0  0  0  0  0  0  0  0
   13.5084    0.4663  -33.9180 C   0  0  0  0  0  0  0  0  0  0  0  0
   14.2448    1.6400  -33.7755 C   0  0  0  0  0  0  0  0  0  0  0  0
   15.0435    1.7862  -32.6535 C   0  0  0  0  0  0  0  0  0  0  0  0
   15.1853    0.8435  -31.7001 N   0  0  0  0  0  0  0  0  0  0  0  0
   14.5098   -0.3171  -31.8962 C   0  0  0  0  0  0  0  0  0  0  0  0
   13.6707   -0.5818  -32.9828 C   0  0  0  0  0  0  0  0  0  0  0  0
   13.0059   -1.8144  -33.2192 N   0  0  0  0  0  0  0  0  0  0  0  0
   13.8650   -2.7100  -34.0076 C   0  0  0  0  0  0  0  0  0  0  0  0
   14.8286   -3.3069  -33.1431 O   0  0  0  0  0  0  0  0  0  0  0  0
   16.1591   -3.1311  -33.6033 C   0  0  0  0  0  0  0  0  0  0  0  0
   17.0381   -3.4482  -32.4998 N   0  0  0  0  0  0  0  0  0  0  0  0
   18.4483   -3.4382  -32.8942 C   0  0  0  0  0  0  0  0  0  0  0  0
   19.3584   -3.3161  -31.6636 C   0  0  0  0  0  0  0  0  0  0  0  0
   19.5697   -1.8688  -31.2595 C   0  0  0  0  0  0  0  0  0  0  0  0
   18.5516   -1.2174  -30.5369 C   0  0  0  0  0  0  0  0  0  0  0  0
   18.6488    0.1355  -30.2184 C   0  0  0  0  0  0  0  0  0  0  0  0
   19.7758    0.8425  -30.6118 C   0  0  0  0  0  0  0  0  0  0  0  0
   19.9119    2.1714  -30.3248 O   0  0  0  0  0  0  0  0  0  0  0  0
   20.7996    0.2184  -31.3203 C   0  0  0  0  0  0  0  0  0  0  0  0
   20.7113   -1.1414  -31.6670 C   0  0  0  0  0  0  0  0  0  0  0  0
   21.7225   -1.7871  -32.4062 N   0  0  0  0  0  0  0  0  0  0  0  0
   22.7963   -2.3055  -31.5365 C   0  0  0  0  0  0  0  0  0  0  0  0
   23.9935   -2.7892  -32.3698 C   0  0  0  0  0  0  0  0  0  0  0  0
   23.5669   -3.2145  -33.7692 C   0  0  0  0  0  0  0  0  0  0  0  0
   22.8987   -2.0565  -34.5187 C   0  0  0  0  0  0  0  0  0  0  0  0
   22.2052   -1.0604  -33.5820 C   0  0  0  0  0  0  0  0  0  0  0  0
   13.0178   -3.8524  -34.5999 C   0  0  0  0  0  0  0  0  0  0  0  0
   11.6571   -4.0338  -33.9360 C   0  0  0  0  0  0  0  0  0  0  0  0
   11.7297   -3.7635  -32.4515 C   0  0  0  0  0  0  0  0  0  0  0  0
   11.1501   -4.4817  -31.6327 O   0  0  0  0  0  0  0  0  0  0  0  0
   12.4548   -2.4735  -32.0312 C   0  0  0  0  0  0  0  0  0  0  0  0
   11.4992   -1.6268  -31.4127 O   0  0  0  0  0  0  0  0  0  0  0  0
  1  2  1  0
  2  3  2  0
  3  4  1  0
  4  5  2  0
  5  6  1  0
  6  7  2  0
  7  8  1  0
  8  9  1  0
  9 10  1  0
 10 11  1  0
 11 12  1  0
 12 13  1  0
 13 14  1  0
 14 15  1  0
 15 16  2  0
 16 17  1  0
 17 18  2  0
 18 19  1  0
 18 20  1  0
 20 21  2  0
 21 22  1  0
 22 23  1  0
 23 24  1  0
 24 25  1  0
 25 26  1  0
 26 27  1  0
  9 28  1  0
 28 29  1  0
 29 30  1  0
 30 31  2  0
 30 32  1  0
 32 33  1  0
  7  2  1  0
 32  8  1  0
 21 15  1  0
 27 22  1  0
M  END
$$$$
