
     RDKit          3D

 19 20  0  0  0  0  0  0  0  0999 V2000
   -8.0081   -4.9067    0.0139 N   0  0  0  0  0  0  0  0  0  0  0  0
   -7.5011   -5.4244   -1.2516 C   0  0  0  0  0  0  0  0  0  0  0  0
   -7.4710   -4.3455   -2.3238 C   0  0  0  0  0  0  0  0  0  0  0  0
   -8.8631   -3.9650   -2.7840 C   0  0  0  0  0  0  0  0  0  0  0  0
   -9.6199   -4.7852   -3.3077 O   0  0  0  0  0  0  0  0  0  0  0  0
   -9.2918   -2.5380   -2.5942 C   0  0  0  0  0  0  0  0  0  0  0  0
   -9.7275   -2.2309   -1.1884 C   0  0  0  0  0  0  0  0  0  0  0  0
   -8.9340   -1.7548   -0.3735 O   0  0  0  0  0  0  0  0  0  0  0  0
  -11.1577   -2.5468   -0.8118 C   0  0  0  0  0  0  0  0  0  0  0  0
  -11.2497   -3.8526   -0.0367 C   0  0  0  0  0  0  0  0  0  0  0  0
  -12.6700   -4.2391    0.2281 C   0  0  0  0  0  0  0  0  0  0  0  0
  -13.4166   -3.9192    1.3448 C   0  0  0  0  0  0  0  0  0  0  0  0
  -14.6669   -4.4555    1.1931 N   0  0  0  0  0  0  0  0  0  0  0  0
  -14.7587   -5.1205   -0.0071 C   0  0  0  0  0  0  0  0  0  0  0  0
  -15.8356   -5.8095   -0.5780 C   0  0  0  0  0  0  0  0  0  0  0  0
  -15.6364   -6.3998   -1.8296 C   0  0  0  0  0  0  0  0  0  0  0  0
  -14.4092   -6.3037   -2.4812 C   0  0  0  0  0  0  0  0  0  0  0  0
  -13.3430   -5.6109   -1.8963 C   0  0  0  0  0  0  0  0  0  0  0  0
  -13.5181   -5.0059   -0.6345 C   0  0  0  0  0  0  0  0  0  0  0  0
  1  2  1  0
  2  3  1  0
  3  4  1  0
  4  5  2  0
  4  6  1  0
  6  7  1  0
  7  8  2  0
  7  9  1  0
  9 10  1  0
 10 11  1  0
 11 12  2  0
 12 13  1  0
 13 14  1  0
 14 15  2  0
 15 16  1  0
 16 17  2  0
 17 18  1  0
 18 19  2  0
 19 11  1  0
 19 14  1  0
M  END
$$$$
