
     RDKit          3D

 21 23  0  0  0  0  0  0  0  0999 V2000
   68.4932   45.5943  -60.9198 N   0  0  0  0  0  0  0  0  0  0  0  0
   69.8436   45.8093  -61.0095 C   0  0  0  0  0  0  0  0  0  0  0  0
   70.5666   45.7027  -60.0298 O   0  0  0  0  0  0  0  0  0  0  0  0
   70.3426   46.1835  -62.3561 C   0  0  0  0  0  0  0  0  0  0  0  0
   69.7330   47.3093  -62.9345 C   0  0  0  0  0  0  0  0  0  0  0  0
   70.2091   47.7640  -64.1439 C   0  0  0  0  0  0  0  0  0  0  0  0
   71.2325   47.1869  -64.7903 N   0  0  0  0  0  0  0  0  0  0  0  0
   71.8103   46.1095  -64.1896 C   0  0  0  0  0  0  0  0  0  0  0  0
   71.4182   45.5182  -62.9814 C   0  0  0  0  0  0  0  0  0  0  0  0
   72.0450   44.3817  -62.4692 N   0  0  0  0  0  0  0  0  0  0  0  0
   71.1928   43.2780  -61.9990 C   0  0  0  0  0  0  0  0  0  0  0  0
   71.6768   41.9253  -62.5304 C   0  0  0  0  0  0  0  0  0  0  0  0
   72.2371   42.0698  -63.9382 C   0  0  0  0  0  0  0  0  0  0  0  0
   73.4309   43.0338  -63.9666 C   0  0  0  0  0  0  0  0  0  0  0  0
   73.4502   44.0385  -62.7737 C   0  0  0  0  0  0  0  0  0  0  0  0
   74.4717   45.1062  -62.9329 N   0  0  0  0  0  0  0  0  0  0  0  0
   74.5316   45.9152  -61.6964 C   0  0  0  0  0  0  0  0  0  0  0  0
   75.4962   47.0933  -61.8383 C   0  0  0  0  0  0  0  0  0  0  0  0
   76.8917   46.6187  -62.2149 C   0  0  0  0  0  0  0  0  0  0  0  0
   76.8249   45.7259  -63.4449 C   0  0  0  0  0  0  0  0  0  0  0  0
   75.8090   44.5939  -63.2673 C   0  0  0  0  0  0  0  0  0  0  0  0
  1  2  1  0
  2  3  2  0
  2  4  1  0
  4  5  2  0
  5  6  1  0
  6  7  2  0
  7  8  1  0
  8  9  2  0
  9 10  1  0
 10 11  1  0
 11 12  1  0
 12 13  1  0
 13 14  1  0
 14 15  1  0
 15 16  1  0
 16 17  1  0
 17 18  1  0
 18 19  1  0
 19 20  1  0
 20 21  1  0
  9  4  1  0
 15 10  1  0
 21 16  1  0
M  END
$$$$
