
     RDKit          3D

 16 17  0  0  0  0  0  0  0  0999 V2000
  -11.0607   -7.3544   -4.2533 N   0  0  0  0  0  0  0  0  0  0  0  0
  -11.9649   -7.4863   -3.1111 C   0  0  0  0  0  0  0  0  0  0  0  0
  -13.3777   -7.8048   -3.5840 C   0  0  0  0  0  0  0  0  0  0  0  0
  -14.3396   -7.9591   -2.4199 C   0  0  0  0  0  0  0  0  0  0  0  0
  -14.0140   -7.6984   -1.2624 O   0  0  0  0  0  0  0  0  0  0  0  0
  -15.7357   -8.4286   -2.7817 C   0  0  0  0  0  0  0  0  0  0  0  0
  -16.6292   -8.5743   -1.5537 C   0  0  0  0  0  0  0  0  0  0  0  0
  -18.0040   -9.0376   -1.9200 C   0  0  0  0  0  0  0  0  0  0  0  0
  -18.4530  -10.3439   -1.9245 C   0  0  0  0  0  0  0  0  0  0  0  0
  -19.7627  -10.3475   -2.3218 N   0  0  0  0  0  0  0  0  0  0  0  0
  -20.1844   -9.0655   -2.5848 C   0  0  0  0  0  0  0  0  0  0  0  0
  -21.4311   -8.5967   -3.0164 C   0  0  0  0  0  0  0  0  0  0  0  0
  -21.5771   -7.2187   -3.2001 C   0  0  0  0  0  0  0  0  0  0  0  0
  -20.5178   -6.3470   -2.9599 C   0  0  0  0  0  0  0  0  0  0  0  0
  -19.2780   -6.8331   -2.5287 C   0  0  0  0  0  0  0  0  0  0  0  0
  -19.1033   -8.2193   -2.3369 C   0  0  0  0  0  0  0  0  0  0  0  0
  1  2  1  0
  2  3  1  0
  3  4  1  0
  4  5  2  0
  4  6  1  0
  6  7  1  0
  7  8  1  0
  8  9  2  0
  9 10  1  0
 10 11  1  0
 11 12  2  0
 12 13  1  0
 13 14  2  0
 14 15  1  0
 15 16  2  0
 16  8  1  0
 16 11  1  0
M  END
$$$$
