
     RDKit          3D

 23 25  0  0  0  0  0  0  0  0999 V2000
    6.1990   -4.8629  -10.8724 C   0  0  0  0  0  0  0  0  0  0  0  0
    7.3432   -5.5583  -10.3925 O   0  0  0  0  0  0  0  0  0  0  0  0
    8.1424   -4.8915   -9.5050 C   0  0  0  0  0  0  0  0  0  0  0  0
    8.0245   -3.5550   -9.1429 C   0  0  0  0  0  0  0  0  0  0  0  0
    8.9161   -3.0054   -8.2191 C   0  0  0  0  0  0  0  0  0  0  0  0
    9.9348   -3.7806   -7.6285 C   0  0  0  0  0  0  0  0  0  0  0  0
   10.8374   -3.1348   -6.5984 C   0  0  0  0  0  0  0  0  0  0  0  0
   10.0916   -2.6443   -5.4328 N   0  0  0  0  0  0  0  0  0  0  0  0
   10.0821   -5.1283   -8.0185 C   0  0  0  0  0  0  0  0  0  0  0  0
   11.1409   -5.9098   -7.5119 N   0  0  0  0  0  0  0  0  0  0  0  0
   10.7282   -7.1389   -6.8149 C   0  0  0  0  0  0  0  0  0  0  0  0
   10.8013   -8.3732   -7.6949 C   0  0  0  0  0  0  0  0  0  0  0  0
   10.0239   -9.3205   -7.5640 O   0  0  0  0  0  0  0  0  0  0  0  0
   11.9019   -8.4146   -8.7251 C   0  0  0  0  0  0  0  0  0  0  0  0
   12.9530   -7.3612   -8.4063 C   0  0  0  0  0  0  0  0  0  0  0  0
   12.3248   -5.9421   -8.4091 C   0  0  0  0  0  0  0  0  0  0  0  0
   13.3373   -4.8968   -8.2021 N   0  0  0  0  0  0  0  0  0  0  0  0
   14.1502   -5.0339   -7.0024 C   0  0  0  0  0  0  0  0  0  0  0  0
   14.8082   -3.6928   -6.6541 C   0  0  0  0  0  0  0  0  0  0  0  0
   15.2599   -2.9008   -7.8840 C   0  0  0  0  0  0  0  0  0  0  0  0
   15.4131   -3.8090   -9.0960 C   0  0  0  0  0  0  0  0  0  0  0  0
   14.1071   -4.5574   -9.4000 C   0  0  0  0  0  0  0  0  0  0  0  0
    9.1690   -5.6616   -8.9495 C   0  0  0  0  0  0  0  0  0  0  0  0
  1  2  1  0
  2  3  1  0
  3  4  2  0
  4  5  1  0
  5  6  2  0
  6  7  1  0
  7  8  1  0
  6  9  1  0
  9 10  1  0
 10 11  1  0
 11 12  1  0
 12 13  2  0
 12 14  1  0
 14 15  1  0
 15 16  1  0
 16 17  1  0
 17 18  1  0
 18 19  1  0
 19 20  1  0
 20 21  1  0
 21 22  1  0
  9 23  2  0
 23  3  1  0
 16 10  1  0
 22 17  1  0
M  END
$$$$
