
     RDKit          3D

 16 17  0  0  0  0  0  0  0  0999 V2000
  -25.2035   -5.4522   42.3806 N   0  0  0  0  0  0  0  0  0  0  0  0
  -26.4517   -5.5439   43.1421 C   0  0  0  0  0  0  0  0  0  0  0  0
  -26.4728   -6.8496   43.9270 C   0  0  0  0  0  0  0  0  0  0  0  0
  -25.9975   -6.9126   45.0637 O   0  0  0  0  0  0  0  0  0  0  0  0
  -27.0103   -8.0702   43.2032 C   0  0  0  0  0  0  0  0  0  0  0  0
  -27.4819   -9.1833   44.1408 C   0  0  0  0  0  0  0  0  0  0  0  0
  -28.5927   -8.7824   45.1206 C   0  0  0  0  0  0  0  0  0  0  0  0
  -29.7816   -8.1578   44.4605 C   0  0  0  0  0  0  0  0  0  0  0  0
  -30.7126   -8.8010   43.6680 C   0  0  0  0  0  0  0  0  0  0  0  0
  -31.6257   -7.8764   43.2390 N   0  0  0  0  0  0  0  0  0  0  0  0
  -31.3131   -6.6324   43.7345 C   0  0  0  0  0  0  0  0  0  0  0  0
  -31.9555   -5.4017   43.5531 C   0  0  0  0  0  0  0  0  0  0  0  0
  -31.4128   -4.2857   44.1967 C   0  0  0  0  0  0  0  0  0  0  0  0
  -30.2760   -4.3995   44.9927 C   0  0  0  0  0  0  0  0  0  0  0  0
  -29.6466   -5.6377   45.1632 C   0  0  0  0  0  0  0  0  0  0  0  0
  -30.1691   -6.7790   44.5192 C   0  0  0  0  0  0  0  0  0  0  0  0
  1  2  1  0
  2  3  1  0
  3  4  2  0
  3  5  1  0
  5  6  1  0
  6  7  1  0
  7  8  1  0
  8  9  2  0
  9 10  1  0
 10 11  1  0
 11 12  2  0
 12 13  1  0
 13 14  2  0
 14 15  1  0
 15 16  2  0
 16  8  1  0
 16 11  1  0
M  END
$$$$
