
     RDKit          3D

 23 25  0  0  0  0  0  0  0  0999 V2000
   14.4024  -19.7570   41.8964 N   0  0  0  0  0  0  0  0  0  0  0  0
   14.8257  -20.4772   42.9818 C   0  0  0  0  0  0  0  0  0  0  0  0
   15.3283  -21.5880   42.8455 O   0  0  0  0  0  0  0  0  0  0  0  0
   14.5934  -19.8952   44.3394 C   0  0  0  0  0  0  0  0  0  0  0  0
   14.4792  -20.8372   45.3859 C   0  0  0  0  0  0  0  0  0  0  0  0
   14.2470  -20.4269   46.6971 C   0  0  0  0  0  0  0  0  0  0  0  0
   14.1307  -19.0720   46.9666 C   0  0  0  0  0  0  0  0  0  0  0  0
   13.9188  -18.6656   48.2255 F   0  0  0  0  0  0  0  0  0  0  0  0
   14.2552  -18.1203   45.9549 C   0  0  0  0  0  0  0  0  0  0  0  0
   14.4955  -18.5058   44.6182 C   0  0  0  0  0  0  0  0  0  0  0  0
   14.6656  -17.5229   43.6021 N   0  0  0  0  0  0  0  0  0  0  0  0
   13.4459  -16.6660   43.5143 C   0  0  0  0  0  0  0  0  0  0  0  0
   13.5478  -15.6776   42.3655 C   0  0  0  0  0  0  0  0  0  0  0  0
   12.5790  -15.4084   41.6539 O   0  0  0  0  0  0  0  0  0  0  0  0
   14.8471  -14.9185   42.2592 C   0  0  0  0  0  0  0  0  0  0  0  0
   16.0216  -15.8749   42.4074 C   0  0  0  0  0  0  0  0  0  0  0  0
   15.9330  -16.7333   43.7081 C   0  0  0  0  0  0  0  0  0  0  0  0
   17.2828  -17.2968   43.9133 N   0  0  0  0  0  0  0  0  0  0  0  0
   17.7041  -18.3146   42.9440 C   0  0  0  0  0  0  0  0  0  0  0  0
   19.2104  -18.5881   43.0650 C   0  0  0  0  0  0  0  0  0  0  0  0
   19.6124  -18.9566   44.4893 C   0  0  0  0  0  0  0  0  0  0  0  0
   19.0567  -17.9435   45.4870 C   0  0  0  0  0  0  0  0  0  0  0  0
   17.5536  -17.7412   45.2813 C   0  0  0  0  0  0  0  0  0  0  0  0
  1  2  1  0
  2  3  2  0
  2  4  1  0
  4  5  2  0
  5  6  1  0
  6  7  2  0
  7  8  1  0
  7  9  1  0
  9 10  2  0
 10 11  1  0
 11 12  1  0
 12 13  1  0
 13 14  2  0
 13 15  1  0
 15 16  1  0
 16 17  1  0
 17 18  1  0
 18 19  1  0
 19 20  1  0
 20 21  1  0
 21 22  1  0
 22 23  1  0
 10  4  1  0
 17 11  1  0
 23 18  1  0
M  END
$$$$
