
     RDKit          3D

 23 25  0  0  0  0  0  0  0  0999 V2000
   -3.2331   -0.5609    1.1182 C   0  0  0  0  0  0  0  0  0  0  0  0
   -2.0889   -1.2563    1.5981 O   0  0  0  0  0  0  0  0  0  0  0  0
   -1.2897   -0.5895    2.4856 C   0  0  0  0  0  0  0  0  0  0  0  0
   -1.4076    0.7470    2.8478 C   0  0  0  0  0  0  0  0  0  0  0  0
   -0.5160    1.2966    3.7715 C   0  0  0  0  0  0  0  0  0  0  0  0
    0.5027    0.5214    4.3622 C   0  0  0  0  0  0  0  0  0  0  0  0
    1.4053    1.1671    5.3923 C   0  0  0  0  0  0  0  0  0  0  0  0
    0.6595    1.6577    6.5578 N   0  0  0  0  0  0  0  0  0  0  0  0
    0.6500   -0.8263    3.9722 C   0  0  0  0  0  0  0  0  0  0  0  0
    1.7088   -1.6078    4.4788 N   0  0  0  0  0  0  0  0  0  0  0  0
    1.2961   -2.8369    5.1758 C   0  0  0  0  0  0  0  0  0  0  0  0
    1.3692   -4.0712    4.2957 C   0  0  0  0  0  0  0  0  0  0  0  0
    0.5918   -5.0185    4.4267 O   0  0  0  0  0  0  0  0  0  0  0  0
    2.4698   -4.1126    3.2656 C   0  0  0  0  0  0  0  0  0  0  0  0
    3.5209   -3.0592    3.5844 C   0  0  0  0  0  0  0  0  0  0  0  0
    2.8927   -1.6401    3.5816 C   0  0  0  0  0  0  0  0  0  0  0  0
    3.9052   -0.5948    3.7886 N   0  0  0  0  0  0  0  0  0  0  0  0
    4.7181   -0.7319    4.9882 C   0  0  0  0  0  0  0  0  0  0  0  0
    5.3761    0.6092    5.3366 C   0  0  0  0  0  0  0  0  0  0  0  0
    5.8278    1.4012    4.1067 C   0  0  0  0  0  0  0  0  0  0  0  0
    5.9810    0.4929    2.8946 C   0  0  0  0  0  0  0  0  0  0  0  0
    4.6750   -0.2554    2.5906 C   0  0  0  0  0  0  0  0  0  0  0  0
   -0.2630   -1.3596    3.0412 C   0  0  0  0  0  0  0  0  0  0  0  0
  1  2  1  0
  2  3  1  0
  3  4  2  0
  4  5  1  0
  5  6  2  0
  6  7  1  0
  7  8  1  0
  6  9  1  0
  9 10  1  0
 10 11  1  0
 11 12  1  0
 12 13  2  0
 12 14  1  0
 14 15  1  0
 15 16  1  0
 16 17  1  0
 17 18  1  0
 18 19  1  0
 19 20  1  0
 20 21  1  0
 21 22  1  0
  9 23  2  0
 23  3  1  0
 16 10  1  0
 22 17  1  0
M  END
$$$$
