
     RDKit          3D

 29 32  0  0  0  0  0  0  0  0999 V2000
    5.0836    5.7734   -7.0293 N   0  0  0  0  0  0  0  0  0  0  0  0
    6.4192    6.2124   -7.4225 C   0  0  0  0  0  0  0  0  0  0  0  0
    7.0555    7.0822   -6.3648 C   0  0  0  0  0  0  0  0  0  0  0  0
    6.6306    8.4181   -6.2517 C   0  0  0  0  0  0  0  0  0  0  0  0
    7.2085    9.2348   -5.2955 C   0  0  0  0  0  0  0  0  0  0  0  0
    8.1669    8.8234   -4.4472 N   0  0  0  0  0  0  0  0  0  0  0  0
    8.5570    7.5290   -4.5654 C   0  0  0  0  0  0  0  0  0  0  0  0
    8.0607    6.6074   -5.4974 C   0  0  0  0  0  0  0  0  0  0  0  0
    8.4953    5.2720   -5.5741 N   0  0  0  0  0  0  0  0  0  0  0  0
    7.6759    4.3798   -4.7307 C   0  0  0  0  0  0  0  0  0  0  0  0
    7.9601    2.9204   -5.0659 C   0  0  0  0  0  0  0  0  0  0  0  0
    7.0934    2.0483   -4.9728 O   0  0  0  0  0  0  0  0  0  0  0  0
    9.3979    2.5384   -5.3499 C   0  0  0  0  0  0  0  0  0  0  0  0
   10.1243    3.6176   -6.1459 C   0  0  0  0  0  0  0  0  0  0  0  0
    9.9432    5.0295   -5.5349 C   0  0  0  0  0  0  0  0  0  0  0  0
   10.6542    5.1447   -4.2568 N   0  0  0  0  0  0  0  0  0  0  0  0
   12.0836    5.4431   -4.3950 C   0  0  0  0  0  0  0  0  0  0  0  0
   12.3443    6.9210   -4.7125 C   0  0  0  0  0  0  0  0  0  0  0  0
   13.8388    7.2493   -4.7227 C   0  0  0  0  0  0  0  0  0  0  0  0
   14.4989    6.5545   -5.8195 N   0  0  0  0  0  0  0  0  0  0  0  0
   15.8393    6.6237   -5.9734 C   0  0  0  0  0  0  0  0  0  0  0  0
   16.4773    6.6983   -7.1153 N   0  0  0  0  0  0  0  0  0  0  0  0
   17.8123    6.7190   -6.7907 C   0  0  0  0  0  0  0  0  0  0  0  0
   18.9388    6.7977   -7.6226 C   0  0  0  0  0  0  0  0  0  0  0  0
   20.2101    6.7965   -7.0334 C   0  0  0  0  0  0  0  0  0  0  0  0
   20.3562    6.7169   -5.6456 C   0  0  0  0  0  0  0  0  0  0  0  0
   19.2438    6.6365   -4.7991 C   0  0  0  0  0  0  0  0  0  0  0  0
   17.9901    6.6419   -5.4139 C   0  0  0  0  0  0  0  0  0  0  0  0
   16.7132    6.5721   -4.9196 N   0  0  0  0  0  0  0  0  0  0  0  0
  1  2  1  0
  2  3  1  0
  3  4  2  0
  4  5  1  0
  5  6  2  0
  6  7  1  0
  7  8  2  0
  8  9  1  0
  9 10  1  0
 10 11  1  0
 11 12  2  0
 11 13  1  0
 13 14  1  0
 14 15  1  0
 15 16  1  0
 16 17  1  0
 17 18  1  0
 18 19  1  0
 19 20  1  0
 20 21  1  0
 21 22  2  0
 22 23  1  0
 23 24  2  0
 24 25  1  0
 25 26  2  0
 26 27  1  0
 27 28  2  0
 28 29  1  0
  8  3  1  0
 15  9  1  0
 29 21  1  0
 28 23  1  0
M  END
$$$$
