
     RDKit          3D

 16 17  0  0  0  0  0  0  0  0999 V2000
  -43.2531   -4.2420   27.1593 N   0  0  0  0  0  0  0  0  0  0  0  0
  -44.5013   -4.3337   27.9208 C   0  0  0  0  0  0  0  0  0  0  0  0
  -44.5224   -5.6393   28.7057 C   0  0  0  0  0  0  0  0  0  0  0  0
  -44.0471   -5.7023   29.8424 O   0  0  0  0  0  0  0  0  0  0  0  0
  -45.0599   -6.8599   27.9819 C   0  0  0  0  0  0  0  0  0  0  0  0
  -45.5315   -7.9730   28.9195 C   0  0  0  0  0  0  0  0  0  0  0  0
  -46.6422   -7.5721   29.8993 C   0  0  0  0  0  0  0  0  0  0  0  0
  -47.8312   -6.9475   29.2391 C   0  0  0  0  0  0  0  0  0  0  0  0
  -48.7622   -7.5907   28.4467 C   0  0  0  0  0  0  0  0  0  0  0  0
  -49.6753   -6.6661   28.0176 N   0  0  0  0  0  0  0  0  0  0  0  0
  -49.3627   -5.4221   28.5132 C   0  0  0  0  0  0  0  0  0  0  0  0
  -50.0051   -4.1914   28.3317 C   0  0  0  0  0  0  0  0  0  0  0  0
  -49.4623   -3.0755   28.9754 C   0  0  0  0  0  0  0  0  0  0  0  0
  -48.3255   -3.1892   29.7714 C   0  0  0  0  0  0  0  0  0  0  0  0
  -47.6962   -4.4274   29.9419 C   0  0  0  0  0  0  0  0  0  0  0  0
  -48.2187   -5.5688   29.2978 C   0  0  0  0  0  0  0  0  0  0  0  0
  1  2  1  0
  2  3  1  0
  3  4  2  0
  3  5  1  0
  5  6  1  0
  6  7  1  0
  7  8  1  0
  8  9  2  0
  9 10  1  0
 10 11  1  0
 11 12  2  0
 12 13  1  0
 13 14  2  0
 14 15  1  0
 15 16  2  0
 16  8  1  0
 16 11  1  0
M  END
$$$$
