
     RDKit          3D

 22 24  0  0  0  0  0  0  0  0999 V2000
  -59.1377   -3.8642  -24.0072 N   0  0  0  0  0  0  0  0  0  0  0  0
  -57.9832   -4.7549  -23.9035 C   0  0  0  0  0  0  0  0  0  0  0  0
  -57.9951   -5.5591  -22.6195 C   0  0  0  0  0  0  0  0  0  0  0  0
  -58.9199   -6.6232  -22.5312 C   0  0  0  0  0  0  0  0  0  0  0  0
  -58.9738   -7.4385  -21.4057 C   0  0  0  0  0  0  0  0  0  0  0  0
  -58.1060   -7.1968  -20.3567 C   0  0  0  0  0  0  0  0  0  0  0  0
  -58.1918   -8.0106  -19.2648 O   0  0  0  0  0  0  0  0  0  0  0  0
  -57.1814   -6.1548  -20.4180 C   0  0  0  0  0  0  0  0  0  0  0  0
  -57.1003   -5.3142  -21.5457 C   0  0  0  0  0  0  0  0  0  0  0  0
  -56.1760   -4.2623  -21.6027 N   0  0  0  0  0  0  0  0  0  0  0  0
  -56.7696   -2.9163  -21.4736 C   0  0  0  0  0  0  0  0  0  0  0  0
  -56.7214   -2.4484  -20.0288 C   0  0  0  0  0  0  0  0  0  0  0  0
  -57.5195   -1.6339  -19.5636 O   0  0  0  0  0  0  0  0  0  0  0  0
  -55.6131   -3.0189  -19.1813 C   0  0  0  0  0  0  0  0  0  0  0  0
  -54.4356   -3.3741  -20.0768 C   0  0  0  0  0  0  0  0  0  0  0  0
  -54.7760   -4.4517  -21.1514 C   0  0  0  0  0  0  0  0  0  0  0  0
  -53.7133   -4.4447  -22.1886 N   0  0  0  0  0  0  0  0  0  0  0  0
  -54.0143   -5.3632  -23.3008 C   0  0  0  0  0  0  0  0  0  0  0  0
  -53.8673   -6.8454  -22.9445 C   0  0  0  0  0  0  0  0  0  0  0  0
  -52.4817   -7.1424  -22.3812 C   0  0  0  0  0  0  0  0  0  0  0  0
  -52.1209   -6.1690  -21.2639 C   0  0  0  0  0  0  0  0  0  0  0  0
  -52.3524   -4.7184  -21.6965 C   0  0  0  0  0  0  0  0  0  0  0  0
  1  2  1  0
  2  3  1  0
  3  4  2  0
  4  5  1  0
  5  6  2  0
  6  7  1  0
  6  8  1  0
  8  9  2  0
  9 10  1  0
 10 11  1  0
 11 12  1  0
 12 13  2  0
 12 14  1  0
 14 15  1  0
 15 16  1  0
 16 17  1  0
 17 18  1  0
 18 19  1  0
 19 20  1  0
 20 21  1  0
 21 22  1  0
  9  3  1  0
 16 10  1  0
 22 17  1  0
M  END
$$$$
