
     RDKit          3D

 29 31  0  0  0  0  0  0  0  0999 V2000
    2.1799    1.5985  -22.3156 N   0  0  0  0  0  0  0  0  0  0  0  0
    1.4293    1.5796  -23.4573 C   0  0  0  0  0  0  0  0  0  0  0  0
    1.0769    2.6130  -24.0069 O   0  0  0  0  0  0  0  0  0  0  0  0
    1.0441    0.2408  -23.9779 C   0  0  0  0  0  0  0  0  0  0  0  0
    2.0065   -0.7845  -23.9674 C   0  0  0  0  0  0  0  0  0  0  0  0
    1.7071   -2.0398  -24.4985 C   0  0  0  0  0  0  0  0  0  0  0  0
    0.4543   -2.2688  -25.0578 C   0  0  0  0  0  0  0  0  0  0  0  0
    0.0887   -3.8094  -25.7300 Cl  0  0  0  0  0  0  0  0  0  0  0  0
   -0.5046   -1.2560  -25.0816 C   0  0  0  0  0  0  0  0  0  0  0  0
   -0.2388    0.0110  -24.5196 C   0  0  0  0  0  0  0  0  0  0  0  0
   -1.2911    1.1080  -24.5581 C   0  0  0  0  0  0  0  0  0  0  0  0
   -2.6378    0.5330  -24.5660 N   0  0  0  0  0  0  0  0  0  0  0  0
   -3.7196    1.4464  -24.5067 C   0  0  0  0  0  0  0  0  0  0  0  0
   -3.7523    2.6235  -25.2647 C   0  0  0  0  0  0  0  0  0  0  0  0
   -4.8598    3.4718  -25.2131 C   0  0  0  0  0  0  0  0  0  0  0  0
   -5.9509    3.1302  -24.4145 C   0  0  0  0  0  0  0  0  0  0  0  0
   -7.3805    4.1666  -24.3759 S   0  0  0  0  0  0  0  0  0  0  0  0
   -7.3165    4.7981  -22.8216 N   0  0  0  0  0  0  0  0  0  0  0  0
   -7.1846    5.2919  -25.2610 O   0  0  0  0  0  0  0  0  0  0  0  0
   -8.5591    3.3353  -24.4289 O   0  0  0  0  0  0  0  0  0  0  0  0
   -5.9597    1.9424  -23.6774 C   0  0  0  0  0  0  0  0  0  0  0  0
   -4.8522    1.0848  -23.7193 C   0  0  0  0  0  0  0  0  0  0  0  0
   -4.8236   -0.1554  -23.0220 N   0  0  0  0  0  0  0  0  0  0  0  0
   -5.2930   -1.2475  -23.9032 C   0  0  0  0  0  0  0  0  0  0  0  0
   -5.8506   -2.4082  -23.0848 C   0  0  0  0  0  0  0  0  0  0  0  0
   -7.0552   -1.9467  -22.2749 C   0  0  0  0  0  0  0  0  0  0  0  0
   -6.7509   -0.6716  -21.5217 C   0  0  0  0  0  0  0  0  0  0  0  0
   -7.6022   -0.1400  -20.8063 O   0  0  0  0  0  0  0  0  0  0  0  0
   -5.3408   -0.1200  -21.6379 C   0  0  0  0  0  0  0  0  0  0  0  0
  1  2  1  0
  2  3  2  0
  2  4  1  0
  4  5  2  0
  5  6  1  0
  6  7  2  0
  7  8  1  0
  7  9  1  0
  9 10  2  0
 10 11  1  0
 11 12  1  0
 12 13  1  0
 13 14  2  0
 14 15  1  0
 15 16  2  0
 16 17  1  0
 17 18  1  0
 17 19  2  0
 17 20  2  0
 16 21  1  0
 21 22  2  0
 22 23  1  0
 23 24  1  0
 24 25  1  0
 25 26  1  0
 26 27  1  0
 27 28  2  0
 27 29  1  0
 10  4  1  0
 22 13  1  0
 29 23  1  0
M  END
$$$$
