
     RDKit          3D

 22 23  0  0  0  0  0  0  0  0999 V2000
    0.7087   10.6213  -79.2031 C   0  0  0  0  0  0  0  0  0  0  0  0
    0.9997   10.3669  -77.8327 O   0  0  0  0  0  0  0  0  0  0  0  0
    0.3839   11.1702  -76.9065 C   0  0  0  0  0  0  0  0  0  0  0  0
   -0.3601   12.3117  -77.2123 C   0  0  0  0  0  0  0  0  0  0  0  0
   -0.9245   13.0849  -76.1913 C   0  0  0  0  0  0  0  0  0  0  0  0
   -0.7165   12.7636  -74.8514 C   0  0  0  0  0  0  0  0  0  0  0  0
   -1.3724   13.4769  -73.8426 N   0  0  0  0  0  0  0  0  0  0  0  0
   -0.0247   11.5902  -74.5489 C   0  0  0  0  0  0  0  0  0  0  0  0
    0.5400   10.7923  -75.5613 C   0  0  0  0  0  0  0  0  0  0  0  0
    1.3228    9.5596  -75.1699 C   0  0  0  0  0  0  0  0  0  0  0  0
    2.8102    9.8367  -75.0603 C   0  0  0  0  0  0  0  0  0  0  0  0
    3.3658   10.0530  -73.9866 O   0  0  0  0  0  0  0  0  0  0  0  0
    3.4714    9.8269  -76.2712 N   0  0  0  0  0  0  0  0  0  0  0  0
    4.8646   10.2105  -76.3755 C   0  0  0  0  0  0  0  0  0  0  0  0
    5.0480   11.7292  -76.3226 C   0  0  0  0  0  0  0  0  0  0  0  0
    6.4968   12.1222  -76.4686 C   0  0  0  0  0  0  0  0  0  0  0  0
    7.0249   12.4506  -77.7245 C   0  0  0  0  0  0  0  0  0  0  0  0
    8.3714   12.7940  -77.8545 C   0  0  0  0  0  0  0  0  0  0  0  0
    9.1912   12.8060  -76.7327 C   0  0  0  0  0  0  0  0  0  0  0  0
   10.5002   13.1469  -76.9057 O   0  0  0  0  0  0  0  0  0  0  0  0
    8.6876   12.4788  -75.4782 C   0  0  0  0  0  0  0  0  0  0  0  0
    7.3404   12.1353  -75.3480 C   0  0  0  0  0  0  0  0  0  0  0  0
  1  2  1  0
  2  3  1  0
  3  4  2  0
  4  5  1  0
  5  6  2  0
  6  7  1  0
  6  8  1  0
  8  9  2  0
  9 10  1  0
 10 11  1  0
 11 12  2  0
 11 13  1  0
 13 14  1  0
 14 15  1  0
 15 16  1  0
 16 17  2  0
 17 18  1  0
 18 19  2  0
 19 20  1  0
 19 21  1  0
 21 22  2  0
  9  3  1  0
 22 16  1  0
M  END
$$$$
