
     RDKit          3D

 19 20  0  0  0  0  0  0  0  0999 V2000
  -83.2194    7.2447   48.7687 N   0  0  0  0  0  0  0  0  0  0  0  0
  -82.7124    6.7271   47.5032 C   0  0  0  0  0  0  0  0  0  0  0  0
  -82.6823    7.8060   46.4310 C   0  0  0  0  0  0  0  0  0  0  0  0
  -84.0744    8.1865   45.9708 C   0  0  0  0  0  0  0  0  0  0  0  0
  -84.8312    7.3662   45.4471 O   0  0  0  0  0  0  0  0  0  0  0  0
  -84.5031    9.6135   46.1606 C   0  0  0  0  0  0  0  0  0  0  0  0
  -84.9388    9.9206   47.5663 C   0  0  0  0  0  0  0  0  0  0  0  0
  -84.1453   10.3966   48.3813 O   0  0  0  0  0  0  0  0  0  0  0  0
  -86.3690    9.6046   47.9430 C   0  0  0  0  0  0  0  0  0  0  0  0
  -86.4610    8.2988   48.7181 C   0  0  0  0  0  0  0  0  0  0  0  0
  -87.8813    7.9124   48.9828 C   0  0  0  0  0  0  0  0  0  0  0  0
  -88.6279    8.2323   50.0996 C   0  0  0  0  0  0  0  0  0  0  0  0
  -89.8782    7.6960   49.9479 N   0  0  0  0  0  0  0  0  0  0  0  0
  -89.9700    7.0309   48.7477 C   0  0  0  0  0  0  0  0  0  0  0  0
  -91.0469    6.3420   48.1768 C   0  0  0  0  0  0  0  0  0  0  0  0
  -90.8477    5.7517   46.9252 C   0  0  0  0  0  0  0  0  0  0  0  0
  -89.6205    5.8477   46.2736 C   0  0  0  0  0  0  0  0  0  0  0  0
  -88.5543    6.5405   46.8585 C   0  0  0  0  0  0  0  0  0  0  0  0
  -88.7294    7.1455   48.1203 C   0  0  0  0  0  0  0  0  0  0  0  0
  1  2  1  0
  2  3  1  0
  3  4  1  0
  4  5  2  0
  4  6  1  0
  6  7  1  0
  7  8  2  0
  7  9  1  0
  9 10  1  0
 10 11  1  0
 11 12  2  0
 12 13  1  0
 13 14  1  0
 14 15  2  0
 15 16  1  0
 16 17  2  0
 17 18  1  0
 18 19  2  0
 19 11  1  0
 19 14  1  0
M  END
$$$$
