
     RDKit          3D

 19 20  0  0  0  0  0  0  0  0999 V2000
   13.7054   13.0539   -6.7008 N   0  0  0  0  0  0  0  0  0  0  0  0
   14.2125   12.5362   -7.9663 C   0  0  0  0  0  0  0  0  0  0  0  0
   14.2425   13.6151   -9.0385 C   0  0  0  0  0  0  0  0  0  0  0  0
   12.8505   13.9956   -9.4987 C   0  0  0  0  0  0  0  0  0  0  0  0
   12.0937   13.1754  -10.0224 O   0  0  0  0  0  0  0  0  0  0  0  0
   12.4218   15.4226   -9.3089 C   0  0  0  0  0  0  0  0  0  0  0  0
   11.9861   15.7297   -7.9031 C   0  0  0  0  0  0  0  0  0  0  0  0
   12.7796   16.2058   -7.0881 O   0  0  0  0  0  0  0  0  0  0  0  0
   10.5559   15.4138   -7.5264 C   0  0  0  0  0  0  0  0  0  0  0  0
   10.4638   14.1080   -6.7513 C   0  0  0  0  0  0  0  0  0  0  0  0
    9.0435   13.7215   -6.4866 C   0  0  0  0  0  0  0  0  0  0  0  0
    8.2969   14.0414   -5.3699 C   0  0  0  0  0  0  0  0  0  0  0  0
    7.0466   13.5051   -5.5215 N   0  0  0  0  0  0  0  0  0  0  0  0
    6.9549   12.8401   -6.7218 C   0  0  0  0  0  0  0  0  0  0  0  0
    5.8780   12.1511   -7.2926 C   0  0  0  0  0  0  0  0  0  0  0  0
    6.0772   11.5608   -8.5443 C   0  0  0  0  0  0  0  0  0  0  0  0
    7.3044   11.6569   -9.1959 C   0  0  0  0  0  0  0  0  0  0  0  0
    8.3706   12.3497   -8.6109 C   0  0  0  0  0  0  0  0  0  0  0  0
    8.1954   12.9547   -7.3491 C   0  0  0  0  0  0  0  0  0  0  0  0
  1  2  1  0
  2  3  1  0
  3  4  1  0
  4  5  2  0
  4  6  1  0
  6  7  1  0
  7  8  2  0
  7  9  1  0
  9 10  1  0
 10 11  1  0
 11 12  2  0
 12 13  1  0
 13 14  1  0
 14 15  2  0
 15 16  1  0
 16 17  2  0
 17 18  1  0
 18 19  2  0
 19 11  1  0
 19 14  1  0
M  END
$$$$
