
     RDKit          3D

 18 19  0  0  0  0  0  0  0  0999 V2000
   19.9346  -25.4323   10.0969 N   0  0  0  0  0  0  0  0  0  0  0  0
   19.1139  -26.4745    9.4907 C   0  0  0  0  0  0  0  0  0  0  0  0
   19.2166  -27.7660   10.3037 C   0  0  0  0  0  0  0  0  0  0  0  0
   18.4698  -28.9292    9.6520 C   0  0  0  0  0  0  0  0  0  0  0  0
   16.9549  -28.8167    9.7238 C   0  0  0  0  0  0  0  0  0  0  0  0
   16.3862  -27.9075   10.3267 O   0  0  0  0  0  0  0  0  0  0  0  0
   16.1798  -29.9150    9.0084 C   0  0  0  0  0  0  0  0  0  0  0  0
   14.6663  -29.7481    9.1265 C   0  0  0  0  0  0  0  0  0  0  0  0
   14.1378  -28.6076    8.2515 C   0  0  0  0  0  0  0  0  0  0  0  0
   12.7094  -28.3191    8.5546 C   0  0  0  0  0  0  0  0  0  0  0  0
   11.6546  -28.7962    7.9276 N   0  0  0  0  0  0  0  0  0  0  0  0
   10.5688  -28.2504    8.5690 C   0  0  0  0  0  0  0  0  0  0  0  0
    9.1996  -28.4174    8.3165 C   0  0  0  0  0  0  0  0  0  0  0  0
    8.2791  -27.7413    9.1278 C   0  0  0  0  0  0  0  0  0  0  0  0
    8.7133  -26.9164   10.1688 C   0  0  0  0  0  0  0  0  0  0  0  0
   10.0759  -26.7373   10.4360 C   0  0  0  0  0  0  0  0  0  0  0  0
   10.9706  -27.4226    9.6115 C   0  0  0  0  0  0  0  0  0  0  0  0
   12.3394  -27.4831    9.5807 N   0  0  0  0  0  0  0  0  0  0  0  0
  1  2  1  0
  2  3  1  0
  3  4  1  0
  4  5  1  0
  5  6  2  0
  5  7  1  0
  7  8  1  0
  8  9  1  0
  9 10  1  0
 10 11  2  0
 11 12  1  0
 12 13  2  0
 13 14  1  0
 14 15  2  0
 15 16  1  0
 16 17  2  0
 17 18  1  0
 18 10  1  0
 17 12  1  0
M  END
$$$$
