
     RDKit          3D

 20 21  0  0  0  0  0  0  0  0999 V2000
   33.3233   -4.5511   31.5918 C   0  0  0  0  0  0  0  0  0  0  0  0
   33.4680   -3.2279   32.1960 N   0  0  0  0  0  0  0  0  0  0  0  0
   33.0803   -2.1645   31.2557 C   0  0  0  0  0  0  0  0  0  0  0  0
   31.5753   -2.1569   31.0116 C   0  0  0  0  0  0  0  0  0  0  0  0
   31.1240   -2.4315   29.8970 O   0  0  0  0  0  0  0  0  0  0  0  0
   30.7020   -1.8403   32.2162 C   0  0  0  0  0  0  0  0  0  0  0  0
   29.3670   -1.2227   31.8687 C   0  0  0  0  0  0  0  0  0  0  0  0
   29.3617    0.1581   31.5793 C   0  0  0  0  0  0  0  0  0  0  0  0
   28.1802    0.8287   31.2655 C   0  0  0  0  0  0  0  0  0  0  0  0
   26.9735    0.1413   31.2275 C   0  0  0  0  0  0  0  0  0  0  0  0
   25.8846    0.9065   30.9117 O   0  0  0  0  0  0  0  0  0  0  0  0
   24.6391    0.2286   30.8041 C   0  0  0  0  0  0  0  0  0  0  0  0
   26.9687   -1.2254   31.5054 C   0  0  0  0  0  0  0  0  0  0  0  0
   28.1511   -1.9322   31.8201 C   0  0  0  0  0  0  0  0  0  0  0  0
   27.9842   -3.3003   32.0681 N   0  0  0  0  0  0  0  0  0  0  0  0
   28.6877   -4.2182   31.1680 C   0  0  0  0  0  0  0  0  0  0  0  0
   28.0366   -5.5990   31.2663 C   0  0  0  0  0  0  0  0  0  0  0  0
   27.9989   -6.0870   32.7148 C   0  0  0  0  0  0  0  0  0  0  0  0
   27.3199   -5.0593   33.6203 C   0  0  0  0  0  0  0  0  0  0  0  0
   27.9651   -3.6790   33.4830 C   0  0  0  0  0  0  0  0  0  0  0  0
  1  2  1  0
  2  3  1  0
  3  4  1  0
  4  5  2  0
  4  6  1  0
  6  7  1  0
  7  8  2  0
  8  9  1  0
  9 10  2  0
 10 11  1  0
 11 12  1  0
 10 13  1  0
 13 14  2  0
 14 15  1  0
 15 16  1  0
 16 17  1  0
 17 18  1  0
 18 19  1  0
 19 20  1  0
 14  7  1  0
 20 15  1  0
M  END
$$$$
