
     RDKit          3D

 23 25  0  0  0  0  0  0  0  0999 V2000
  -11.7163    7.7689   -6.3900 C   0  0  0  0  0  0  0  0  0  0  0  0
  -10.7626    6.7169   -6.3976 O   0  0  0  0  0  0  0  0  0  0  0  0
   -9.5092    6.9746   -5.8892 C   0  0  0  0  0  0  0  0  0  0  0  0
   -9.1425    8.2096   -5.3535 C   0  0  0  0  0  0  0  0  0  0  0  0
   -7.8607    8.4046   -4.8476 C   0  0  0  0  0  0  0  0  0  0  0  0
   -6.9068    7.3730   -4.8586 C   0  0  0  0  0  0  0  0  0  0  0  0
   -5.5255    7.6883   -4.3236 C   0  0  0  0  0  0  0  0  0  0  0  0
   -5.5082    7.7936   -2.8632 N   0  0  0  0  0  0  0  0  0  0  0  0
   -7.2476    6.1026   -5.3956 C   0  0  0  0  0  0  0  0  0  0  0  0
   -6.2535    5.0931   -5.3659 N   0  0  0  0  0  0  0  0  0  0  0  0
   -6.2476    4.3492   -4.0974 C   0  0  0  0  0  0  0  0  0  0  0  0
   -5.3624    3.1010   -4.1919 C   0  0  0  0  0  0  0  0  0  0  0  0
   -4.1774    3.3133   -5.1262 C   0  0  0  0  0  0  0  0  0  0  0  0
   -4.6865    3.6435   -6.5154 C   0  0  0  0  0  0  0  0  0  0  0  0
   -4.0282    3.3669   -7.5199 O   0  0  0  0  0  0  0  0  0  0  0  0
   -6.0600    4.3018   -6.5874 C   0  0  0  0  0  0  0  0  0  0  0  0
   -8.5692    5.9010   -5.9233 C   0  0  0  0  0  0  0  0  0  0  0  0
   -8.9267    4.6164   -6.4372 N   0  0  0  0  0  0  0  0  0  0  0  0
   -9.2832    4.6254   -7.8699 C   0  0  0  0  0  0  0  0  0  0  0  0
  -10.5824    3.8722   -8.1521 C   0  0  0  0  0  0  0  0  0  0  0  0
  -10.5911    2.4856   -7.5124 C   0  0  0  0  0  0  0  0  0  0  0  0
  -10.0441    2.4847   -6.0829 C   0  0  0  0  0  0  0  0  0  0  0  0
   -9.8400    3.8971   -5.5400 C   0  0  0  0  0  0  0  0  0  0  0  0
  1  2  1  0
  2  3  1  0
  3  4  2  0
  4  5  1  0
  5  6  2  0
  6  7  1  0
  7  8  1  0
  6  9  1  0
  9 10  1  0
 10 11  1  0
 11 12  1  0
 12 13  1  0
 13 14  1  0
 14 15  2  0
 14 16  1  0
  9 17  2  0
 17 18  1  0
 18 19  1  0
 19 20  1  0
 20 21  1  0
 21 22  1  0
 22 23  1  0
 17  3  1  0
 23 18  1  0
 16 10  1  0
M  END
$$$$
