
     RDKit          3D

 31 34  0  0  0  0  0  0  0  0999 V2000
   -2.9022   12.5176  -12.3328 N   0  0  0  0  0  0  0  0  0  0  0  0
   -2.7346   12.3466  -13.6806 C   0  0  0  0  0  0  0  0  0  0  0  0
   -3.3342   13.0205  -14.5058 O   0  0  0  0  0  0  0  0  0  0  0  0
   -1.7964   11.2757  -14.0994 C   0  0  0  0  0  0  0  0  0  0  0  0
   -2.2079   10.4971  -15.1826 C   0  0  0  0  0  0  0  0  0  0  0  0
   -1.3798    9.4742  -15.5955 C   0  0  0  0  0  0  0  0  0  0  0  0
   -0.1815    9.2063  -15.0257 N   0  0  0  0  0  0  0  0  0  0  0  0
    0.1909    9.9878  -13.9906 C   0  0  0  0  0  0  0  0  0  0  0  0
   -0.5542   11.0469  -13.4623 C   0  0  0  0  0  0  0  0  0  0  0  0
   -0.0782   11.8925  -12.4268 N   0  0  0  0  0  0  0  0  0  0  0  0
    0.4875   13.1219  -13.0556 C   0  0  0  0  0  0  0  0  0  0  0  0
    0.8590   14.1564  -12.0106 C   0  0  0  0  0  0  0  0  0  0  0  0
    0.7041   15.3616  -12.1956 O   0  0  0  0  0  0  0  0  0  0  0  0
    1.5964   13.6464  -10.8015 C   0  0  0  0  0  0  0  0  0  0  0  0
    0.9217   12.3925  -10.2709 C   0  0  0  0  0  0  0  0  0  0  0  0
    0.7794   11.2984  -11.3680 C   0  0  0  0  0  0  0  0  0  0  0  0
    0.3204   10.0590  -10.7413 N   0  0  0  0  0  0  0  0  0  0  0  0
    1.2543    9.4638   -9.7849 C   0  0  0  0  0  0  0  0  0  0  0  0
    2.6729    9.3143  -10.0803 N   0  0  0  0  0  0  0  0  0  0  0  0
    3.0173    8.3321  -11.0457 C   0  0  0  0  0  0  0  0  0  0  0  0
    2.6505    6.9981  -10.8586 C   0  0  0  0  0  0  0  0  0  0  0  0
    2.9709    6.0741  -11.8369 C   0  0  0  0  0  0  0  0  0  0  0  0
    3.6164    6.3861  -12.9793 N   0  0  0  0  0  0  0  0  0  0  0  0
    3.9781    7.6819  -13.1344 C   0  0  0  0  0  0  0  0  0  0  0  0
    3.7430    8.7053  -12.2110 C   0  0  0  0  0  0  0  0  0  0  0  0
    4.1491   10.0430  -12.3877 N   0  0  0  0  0  0  0  0  0  0  0  0
    5.3152   10.4351  -11.5720 C   0  0  0  0  0  0  0  0  0  0  0  0
    6.6293   10.2929  -12.3362 C   0  0  0  0  0  0  0  0  0  0  0  0
    6.5751   11.0468  -13.6534 C   0  0  0  0  0  0  0  0  0  0  0  0
    5.4214   10.5341  -14.4964 C   0  0  0  0  0  0  0  0  0  0  0  0
    4.0991   10.6138  -13.7431 C   0  0  0  0  0  0  0  0  0  0  0  0
  1  2  1  0
  2  3  2  0
  2  4  1  0
  4  5  2  0
  5  6  1  0
  6  7  2  0
  7  8  1  0
  8  9  2  0
  9 10  1  0
 10 11  1  0
 11 12  1  0
 12 13  2  0
 12 14  1  0
 14 15  1  0
 15 16  1  0
 16 17  1  0
 17 18  1  0
 18 19  1  0
 19 20  1  0
 20 21  2  0
 21 22  1  0
 22 23  2  0
 23 24  1  0
 24 25  2  0
 25 26  1  0
 26 27  1  0
 27 28  1  0
 28 29  1  0
 29 30  1  0
 30 31  1  0
  9  4  1  0
 16 10  1  0
 25 20  1  0
 31 26  1  0
M  END
$$$$
