
     RDKit          3D

 23 25  0  0  0  0  0  0  0  0999 V2000
   39.0775  -14.8860    8.4909 N   0  0  0  0  0  0  0  0  0  0  0  0
   40.2645  -14.8217    9.1764 C   0  0  0  0  0  0  0  0  0  0  0  0
   41.3111  -14.6332    8.5693 O   0  0  0  0  0  0  0  0  0  0  0  0
   40.1718  -14.9367   10.6638 C   0  0  0  0  0  0  0  0  0  0  0  0
   39.2590  -15.8921   11.1649 C   0  0  0  0  0  0  0  0  0  0  0  0
   39.1198  -16.0930   12.5348 C   0  0  0  0  0  0  0  0  0  0  0  0
   39.8952  -15.3445   13.4032 C   0  0  0  0  0  0  0  0  0  0  0  0
   39.7657  -15.5242   14.7248 F   0  0  0  0  0  0  0  0  0  0  0  0
   40.8103  -14.4065   12.9285 C   0  0  0  0  0  0  0  0  0  0  0  0
   40.9843  -14.1748   11.5479 C   0  0  0  0  0  0  0  0  0  0  0  0
   41.9051  -13.2061   11.0950 N   0  0  0  0  0  0  0  0  0  0  0  0
   41.3123  -11.9060   10.7710 C   0  0  0  0  0  0  0  0  0  0  0  0
   40.6570  -12.0092    9.5234 O   0  0  0  0  0  0  0  0  0  0  0  0
   42.3608  -10.8008   10.6320 C   0  0  0  0  0  0  0  0  0  0  0  0
   43.2025  -10.6410   11.8921 C   0  0  0  0  0  0  0  0  0  0  0  0
   43.3183  -11.9577   12.6594 C   0  0  0  0  0  0  0  0  0  0  0  0
   43.2619  -13.1913   11.7133 C   0  0  0  0  0  0  0  0  0  0  0  0
   44.4210  -13.2291   10.7889 N   0  0  0  0  0  0  0  0  0  0  0  0
   44.2950  -14.3401    9.8242 C   0  0  0  0  0  0  0  0  0  0  0  0
   45.5276  -15.2420    9.7013 C   0  0  0  0  0  0  0  0  0  0  0  0
   46.8082  -14.4466    9.5060 C   0  0  0  0  0  0  0  0  0  0  0  0
   46.8500  -13.1993   10.3872 C   0  0  0  0  0  0  0  0  0  0  0  0
   45.7335  -13.1729   11.4330 C   0  0  0  0  0  0  0  0  0  0  0  0
  1  2  1  0
  2  3  2  0
  2  4  1  0
  4  5  2  0
  5  6  1  0
  6  7  2  0
  7  8  1  0
  7  9  1  0
  9 10  2  0
 10 11  1  0
 11 12  1  0
 12 13  1  0
 12 14  1  0
 14 15  1  0
 15 16  1  0
 16 17  1  0
 17 18  1  0
 18 19  1  0
 19 20  1  0
 20 21  1  0
 21 22  1  0
 22 23  1  0
 10  4  1  0
 17 11  1  0
 23 18  1  0
M  END
$$$$
