
     RDKit          3D

 23 25  0  0  0  0  0  0  0  0999 V2000
    5.4586    4.0679   -6.1337 N   0  0  0  0  0  0  0  0  0  0  0  0
    4.9078    5.2845   -6.7212 C   0  0  0  0  0  0  0  0  0  0  0  0
    5.8170    5.8844   -7.7951 C   0  0  0  0  0  0  0  0  0  0  0  0
    5.9110    5.0236   -9.0601 C   0  0  0  0  0  0  0  0  0  0  0  0
    6.8579    5.6189  -10.0836 C   0  0  0  0  0  0  0  0  0  0  0  0
    6.4350    6.7514  -10.7992 C   0  0  0  0  0  0  0  0  0  0  0  0
    7.3043    7.3518  -11.6935 C   0  0  0  0  0  0  0  0  0  0  0  0
    8.5542    6.9140  -11.9244 N   0  0  0  0  0  0  0  0  0  0  0  0
    8.9461    5.8227  -11.2203 C   0  0  0  0  0  0  0  0  0  0  0  0
    8.1583    5.1151  -10.3007 C   0  0  0  0  0  0  0  0  0  0  0  0
    8.5908    3.9447   -9.6466 N   0  0  0  0  0  0  0  0  0  0  0  0
    8.1275    2.7301  -10.3445 C   0  0  0  0  0  0  0  0  0  0  0  0
    8.1404    1.5700   -9.3601 C   0  0  0  0  0  0  0  0  0  0  0  0
    7.4513    0.5623   -9.5205 O   0  0  0  0  0  0  0  0  0  0  0  0
    9.0616    1.7178   -8.1713 C   0  0  0  0  0  0  0  0  0  0  0  0
   10.3052    2.4821   -8.6088 C   0  0  0  0  0  0  0  0  0  0  0  0
    9.9949    3.9077   -9.1693 C   0  0  0  0  0  0  0  0  0  0  0  0
   10.4253    4.9666   -8.2516 N   0  0  0  0  0  0  0  0  0  0  0  0
    9.7818    4.9540   -6.9454 C   0  0  0  0  0  0  0  0  0  0  0  0
    9.9387    6.3224   -6.2724 C   0  0  0  0  0  0  0  0  0  0  0  0
   11.3170    6.9526   -6.4906 C   0  0  0  0  0  0  0  0  0  0  0  0
   12.3378    5.9147   -6.9359 C   0  0  0  0  0  0  0  0  0  0  0  0
   11.8722    5.1797   -8.1999 C   0  0  0  0  0  0  0  0  0  0  0  0
  1  2  1  0
  2  3  1  0
  3  4  1  0
  4  5  1  0
  5  6  2  0
  6  7  1  0
  7  8  2  0
  8  9  1  0
  9 10  2  0
 10 11  1  0
 11 12  1  0
 12 13  1  0
 13 14  2  0
 13 15  1  0
 15 16  1  0
 16 17  1  0
 17 18  1  0
 18 19  1  0
 19 20  1  0
 20 21  1  0
 21 22  1  0
 22 23  1  0
 10  5  1  0
 17 11  1  0
 23 18  1  0
M  END
$$$$
