
     RDKit          3D

 29 31  0  0  0  0  0  0  0  0999 V2000
   -0.5421  -15.3333  -24.1650 N   0  0  0  0  0  0  0  0  0  0  0  0
    0.4597  -15.5767  -25.0702 C   0  0  0  0  0  0  0  0  0  0  0  0
    0.2694  -16.3259  -26.0172 O   0  0  0  0  0  0  0  0  0  0  0  0
    1.7506  -14.8829  -24.7992 C   0  0  0  0  0  0  0  0  0  0  0  0
    1.7029  -13.5098  -24.4915 C   0  0  0  0  0  0  0  0  0  0  0  0
    2.8749  -12.8038  -24.2234 C   0  0  0  0  0  0  0  0  0  0  0  0
    4.0882  -13.4762  -24.2578 C   0  0  0  0  0  0  0  0  0  0  0  0
    5.2619  -12.8358  -23.9913 O   0  0  0  0  0  0  0  0  0  0  0  0
    4.1489  -14.8344  -24.5641 C   0  0  0  0  0  0  0  0  0  0  0  0
    2.9857  -15.5678  -24.8593 C   0  0  0  0  0  0  0  0  0  0  0  0
    3.0425  -16.9437  -25.1500 N   0  0  0  0  0  0  0  0  0  0  0  0
    2.9349  -17.7631  -23.9285 C   0  0  0  0  0  0  0  0  0  0  0  0
    2.7671  -19.2263  -24.2981 C   0  0  0  0  0  0  0  0  0  0  0  0
    2.7112  -20.1133  -23.4446 O   0  0  0  0  0  0  0  0  0  0  0  0
    2.6491  -19.5278  -25.7703 C   0  0  0  0  0  0  0  0  0  0  0  0
    3.7941  -18.8590  -26.5231 C   0  0  0  0  0  0  0  0  0  0  0  0
    4.0676  -17.3960  -26.1032 C   0  0  0  0  0  0  0  0  0  0  0  0
    4.0289  -16.5762  -27.2692 O   0  0  0  0  0  0  0  0  0  0  0  0
    5.2404  -16.5846  -27.9958 C   0  0  0  0  0  0  0  0  0  0  0  0
    5.9839  -15.4325  -27.5819 N   0  0  0  0  0  0  0  0  0  0  0  0
    7.1095  -15.5435  -26.8013 C   0  0  0  0  0  0  0  0  0  0  0  0
    7.6024  -16.6180  -26.4783 O   0  0  0  0  0  0  0  0  0  0  0  0
    7.6940  -14.2677  -26.3002 C   0  0  0  0  0  0  0  0  0  0  0  0
    8.4493  -14.3019  -25.1197 C   0  0  0  0  0  0  0  0  0  0  0  0
    9.0051  -13.1280  -24.6043 C   0  0  0  0  0  0  0  0  0  0  0  0
    8.8145  -11.9210  -25.2748 C   0  0  0  0  0  0  0  0  0  0  0  0
    9.4942  -10.4740  -24.6376 Cl  0  0  0  0  0  0  0  0  0  0  0  0
    8.0811  -11.8783  -26.4603 C   0  0  0  0  0  0  0  0  0  0  0  0
    7.5222  -13.0518  -26.9769 C   0  0  0  0  0  0  0  0  0  0  0  0
  1  2  1  0
  2  3  2  0
  2  4  1  0
  4  5  2  0
  5  6  1  0
  6  7  2  0
  7  8  1  0
  7  9  1  0
  9 10  2  0
 10 11  1  0
 11 12  1  0
 12 13  1  0
 13 14  2  0
 13 15  1  0
 15 16  1  0
 16 17  1  0
 17 18  1  0
 18 19  1  0
 19 20  1  0
 20 21  1  0
 21 22  2  0
 21 23  1  0
 23 24  2  0
 24 25  1  0
 25 26  2  0
 26 27  1  0
 26 28  1  0
 28 29  2  0
 10  4  1  0
 17 11  1  0
 29 23  1  0
M  END
$$$$
