
     RDKit          3D

 15 16  0  0  0  0  0  0  0  0999 V2000
   -1.2243   10.0772   14.1030 N   0  0  0  0  0  0  0  0  0  0  0  0
   -2.3591    9.7196   13.2603 C   0  0  0  0  0  0  0  0  0  0  0  0
   -2.2874    8.2522   12.8377 C   0  0  0  0  0  0  0  0  0  0  0  0
   -3.4249    7.8587   11.8973 C   0  0  0  0  0  0  0  0  0  0  0  0
   -4.7588    7.7946   12.6227 C   0  0  0  0  0  0  0  0  0  0  0  0
   -4.9575    6.8751   13.4197 O   0  0  0  0  0  0  0  0  0  0  0  0
   -5.7720    8.8288   12.3830 C   0  0  0  0  0  0  0  0  0  0  0  0
   -5.6436    9.9469   11.5752 C   0  0  0  0  0  0  0  0  0  0  0  0
   -6.8104   10.6633   11.6295 N   0  0  0  0  0  0  0  0  0  0  0  0
   -7.7125   10.0416   12.4569 C   0  0  0  0  0  0  0  0  0  0  0  0
   -9.0173   10.4126   12.8050 C   0  0  0  0  0  0  0  0  0  0  0  0
   -9.7163    9.5808   13.6837 C   0  0  0  0  0  0  0  0  0  0  0  0
   -9.1312    8.4253   14.1926 C   0  0  0  0  0  0  0  0  0  0  0  0
   -7.8257    8.0706   13.8336 C   0  0  0  0  0  0  0  0  0  0  0  0
   -7.0937    8.8905   12.9471 C   0  0  0  0  0  0  0  0  0  0  0  0
  1  2  1  0
  2  3  1  0
  3  4  1  0
  4  5  1  0
  5  6  2  0
  5  7  1  0
  7  8  2  0
  8  9  1  0
  9 10  1  0
 10 11  2  0
 11 12  1  0
 12 13  2  0
 13 14  1  0
 14 15  2  0
 15  7  1  0
 15 10  1  0
M  END
$$$$
