
     RDKit          3D

 16 17  0  0  0  0  0  0  0  0999 V2000
  -24.5110   -5.4726    3.8348 N   0  0  0  0  0  0  0  0  0  0  0  0
  -23.9494   -6.5634    4.6199 C   0  0  0  0  0  0  0  0  0  0  0  0
  -25.0458   -7.2511    5.4304 C   0  0  0  0  0  0  0  0  0  0  0  0
  -24.4633   -8.3332    6.3305 C   0  0  0  0  0  0  0  0  0  0  0  0
  -25.5308   -9.2217    6.9386 C   0  0  0  0  0  0  0  0  0  0  0  0
  -25.5795  -10.4214    6.6516 O   0  0  0  0  0  0  0  0  0  0  0  0
  -26.5065   -8.5974    7.9194 C   0  0  0  0  0  0  0  0  0  0  0  0
  -27.8123   -8.2540    7.2814 C   0  0  0  0  0  0  0  0  0  0  0  0
  -28.6792   -9.1400    6.6693 C   0  0  0  0  0  0  0  0  0  0  0  0
  -29.7641   -8.4436    6.2147 N   0  0  0  0  0  0  0  0  0  0  0  0
  -29.6365   -7.1109    6.5260 C   0  0  0  0  0  0  0  0  0  0  0  0
  -30.4988   -6.0394    6.2632 C   0  0  0  0  0  0  0  0  0  0  0  0
  -30.1109   -4.7715    6.7040 C   0  0  0  0  0  0  0  0  0  0  0  0
  -28.9092   -4.5860    7.3817 C   0  0  0  0  0  0  0  0  0  0  0  0
  -28.0595   -5.6688    7.6373 C   0  0  0  0  0  0  0  0  0  0  0  0
  -28.4241   -6.9599    7.2007 C   0  0  0  0  0  0  0  0  0  0  0  0
  1  2  1  0
  2  3  1  0
  3  4  1  0
  4  5  1  0
  5  6  2  0
  5  7  1  0
  7  8  1  0
  8  9  2  0
  9 10  1  0
 10 11  1  0
 11 12  2  0
 12 13  1  0
 13 14  2  0
 14 15  1  0
 15 16  2  0
 16  8  1  0
 16 11  1  0
M  END
$$$$
