
     RDKit          3D

 28 31  0  0  0  0  0  0  0  0999 V2000
  -56.1047    8.9406    1.7838 N   0  0  0  0  0  0  0  0  0  0  0  0
  -56.5982    8.7619    0.4740 C   0  0  0  0  0  0  0  0  0  0  0  0
  -57.6150    7.8300    0.2593 C   0  0  0  0  0  0  0  0  0  0  0  0
  -57.9575    7.5021   -1.0414 C   0  0  0  0  0  0  0  0  0  0  0  0
  -57.3414    8.0064   -2.1277 N   0  0  0  0  0  0  0  0  0  0  0  0
  -56.3292    8.8739   -1.8940 C   0  0  0  0  0  0  0  0  0  0  0  0
  -55.9095    9.3054   -0.6316 C   0  0  0  0  0  0  0  0  0  0  0  0
  -54.8857   10.2401   -0.4499 N   0  0  0  0  0  0  0  0  0  0  0  0
  -53.5627    9.9956   -1.0711 C   0  0  0  0  0  0  0  0  0  0  0  0
  -52.5849    9.3740   -0.0269 C   0  0  0  0  0  0  0  0  0  0  0  0
  -52.9811    8.0258    0.3997 N   0  0  0  0  0  0  0  0  0  0  0  0
  -52.3156    7.6004    1.6422 C   0  0  0  0  0  0  0  0  0  0  0  0
  -50.7798    7.4784    1.5976 C   0  0  0  0  0  0  0  0  0  0  0  0
  -50.0427    8.7647    1.8401 C   0  0  0  0  0  0  0  0  0  0  0  0
  -50.1106    9.5457    2.9791 C   0  0  0  0  0  0  0  0  0  0  0  0
  -49.3110   10.6418    2.8023 N   0  0  0  0  0  0  0  0  0  0  0  0
  -48.6997   10.5909    1.5724 C   0  0  0  0  0  0  0  0  0  0  0  0
  -47.8066   11.4871    0.9727 C   0  0  0  0  0  0  0  0  0  0  0  0
  -47.3305   11.1723   -0.3032 C   0  0  0  0  0  0  0  0  0  0  0  0
  -47.7321   10.0069   -0.9503 C   0  0  0  0  0  0  0  0  0  0  0  0
  -48.6265    9.1229   -0.3359 C   0  0  0  0  0  0  0  0  0  0  0  0
  -49.1254    9.4166    0.9507 C   0  0  0  0  0  0  0  0  0  0  0  0
  -52.9914   11.3105   -1.6328 C   0  0  0  0  0  0  0  0  0  0  0  0
  -52.8678   12.4050   -0.5757 C   0  0  0  0  0  0  0  0  0  0  0  0
  -54.0454   12.3978    0.3754 C   0  0  0  0  0  0  0  0  0  0  0  0
  -53.9997   13.0149    1.4425 O   0  0  0  0  0  0  0  0  0  0  0  0
  -55.2808   11.5995   -0.0686 C   0  0  0  0  0  0  0  0  0  0  0  0
  -55.8917   12.2337   -1.1720 O   0  0  0  0  0  0  0  0  0  0  0  0
  1  2  1  0
  2  3  2  0
  3  4  1  0
  4  5  2  0
  5  6  1  0
  6  7  2  0
  7  8  1  0
  8  9  1  0
  9 10  1  0
 10 11  1  0
 11 12  1  0
 12 13  1  0
 13 14  1  0
 14 15  2  0
 15 16  1  0
 16 17  1  0
 17 18  2  0
 18 19  1  0
 19 20  2  0
 20 21  1  0
 21 22  2  0
  9 23  1  0
 23 24  1  0
 24 25  1  0
 25 26  2  0
 25 27  1  0
 27 28  1  0
  7  2  1  0
 27  8  1  0
 22 14  1  0
 22 17  1  0
M  END
$$$$
