
     RDKit          3D

 32 35  0  0  0  0  0  0  0  0999 V2000
   18.8319  -16.7310   -6.4383 N   0  0  0  0  0  0  0  0  0  0  0  0
   18.7436  -15.4054   -5.8246 C   0  0  0  0  0  0  0  0  0  0  0  0
   18.1837  -14.3730   -6.7800 C   0  0  0  0  0  0  0  0  0  0  0  0
   16.8471  -14.5058   -7.2114 C   0  0  0  0  0  0  0  0  0  0  0  0
   16.2876  -13.6013   -8.1121 C   0  0  0  0  0  0  0  0  0  0  0  0
   17.0669  -12.5537   -8.5951 C   0  0  0  0  0  0  0  0  0  0  0  0
   16.3720  -11.3867   -9.7221 S   0  0  0  0  0  0  0  0  0  0  0  0
   16.9163  -11.9652  -11.2017 N   0  0  0  0  0  0  0  0  0  0  0  0
   14.9357  -11.5374   -9.7465 O   0  0  0  0  0  0  0  0  0  0  0  0
   17.0136  -10.1064   -9.5330 O   0  0  0  0  0  0  0  0  0  0  0  0
   18.3843  -12.3845   -8.1623 C   0  0  0  0  0  0  0  0  0  0  0  0
   18.9577  -13.2851   -7.2471 C   0  0  0  0  0  0  0  0  0  0  0  0
   20.2814  -13.1147   -6.7782 N   0  0  0  0  0  0  0  0  0  0  0  0
   20.3503  -11.8937   -5.9279 C   0  0  0  0  0  0  0  0  0  0  0  0
   21.7520  -11.6951   -5.3849 C   0  0  0  0  0  0  0  0  0  0  0  0
   22.0690  -10.6930   -4.7435 O   0  0  0  0  0  0  0  0  0  0  0  0
   22.7190  -12.8224   -5.6138 C   0  0  0  0  0  0  0  0  0  0  0  0
   22.7281  -13.2429   -7.0786 C   0  0  0  0  0  0  0  0  0  0  0  0
   21.3608  -13.1699   -7.8089 C   0  0  0  0  0  0  0  0  0  0  0  0
   21.2013  -14.3586   -8.7926 C   0  0  0  0  0  0  0  0  0  0  0  0
   22.0694  -14.2551  -10.0559 C   0  0  0  0  0  0  0  0  0  0  0  0
   23.4895  -14.4044   -9.7704 N   0  0  0  0  0  0  0  0  0  0  0  0
   24.3071  -14.2483  -10.9702 C   0  0  0  0  0  0  0  0  0  0  0  0
   25.7280  -14.5031  -10.5845 C   0  0  0  0  0  0  0  0  0  0  0  0
   26.4349  -15.6754  -10.7824 C   0  0  0  0  0  0  0  0  0  0  0  0
   27.7022  -15.5040  -10.2901 N   0  0  0  0  0  0  0  0  0  0  0  0
   27.8438  -14.2412   -9.7678 C   0  0  0  0  0  0  0  0  0  0  0  0
   28.9506  -13.6351   -9.1612 C   0  0  0  0  0  0  0  0  0  0  0  0
   28.8022  -12.3208   -8.7068 C   0  0  0  0  0  0  0  0  0  0  0  0
   27.5942  -11.6436   -8.8540 C   0  0  0  0  0  0  0  0  0  0  0  0
   26.4979  -12.2648   -9.4652 C   0  0  0  0  0  0  0  0  0  0  0  0
   26.6216  -13.5889   -9.9349 C   0  0  0  0  0  0  0  0  0  0  0  0
  1  2  1  0
  2  3  1  0
  3  4  2  0
  4  5  1  0
  5  6  2  0
  6  7  1  0
  7  8  1  0
  7  9  2  0
  7 10  2  0
  6 11  1  0
 11 12  2  0
 12 13  1  0
 13 14  1  0
 14 15  1  0
 15 16  2  0
 15 17  1  0
 17 18  1  0
 18 19  1  0
 19 20  1  0
 20 21  1  0
 21 22  1  0
 22 23  1  0
 23 24  1  0
 24 25  2  0
 25 26  1  0
 26 27  1  0
 27 28  2  0
 28 29  1  0
 29 30  2  0
 30 31  1  0
 31 32  2  0
 12  3  1  0
 19 13  1  0
 32 24  1  0
 32 27  1  0
M  END
$$$$
