
     RDKit          3D

 15 16  0  0  0  0  0  0  0  0999 V2000
  -45.8270  -28.3956   52.3490 N   0  0  0  0  0  0  0  0  0  0  0  0
  -46.9618  -28.7532   51.5063 C   0  0  0  0  0  0  0  0  0  0  0  0
  -46.8900  -30.2206   51.0837 C   0  0  0  0  0  0  0  0  0  0  0  0
  -48.0276  -30.6141   50.1434 C   0  0  0  0  0  0  0  0  0  0  0  0
  -49.3615  -30.6782   50.8688 C   0  0  0  0  0  0  0  0  0  0  0  0
  -49.5602  -31.5977   51.6657 O   0  0  0  0  0  0  0  0  0  0  0  0
  -50.3746  -29.6440   50.6291 C   0  0  0  0  0  0  0  0  0  0  0  0
  -50.2463  -28.5259   49.8213 C   0  0  0  0  0  0  0  0  0  0  0  0
  -51.4131  -27.8095   49.8755 N   0  0  0  0  0  0  0  0  0  0  0  0
  -52.3151  -28.4312   50.7030 C   0  0  0  0  0  0  0  0  0  0  0  0
  -53.6199  -28.0602   51.0510 C   0  0  0  0  0  0  0  0  0  0  0  0
  -54.3190  -28.8920   51.9297 C   0  0  0  0  0  0  0  0  0  0  0  0
  -53.7338  -30.0475   52.4387 C   0  0  0  0  0  0  0  0  0  0  0  0
  -52.4284  -30.4022   52.0797 C   0  0  0  0  0  0  0  0  0  0  0  0
  -51.6964  -29.5823   51.1932 C   0  0  0  0  0  0  0  0  0  0  0  0
  1  2  1  0
  2  3  1  0
  3  4  1  0
  4  5  1  0
  5  6  2  0
  5  7  1  0
  7  8  2  0
  8  9  1  0
  9 10  1  0
 10 11  2  0
 11 12  1  0
 12 13  2  0
 13 14  1  0
 14 15  2  0
 15  7  1  0
 15 10  1  0
M  END
$$$$
