
     RDKit          3D

 19 20  0  0  0  0  0  0  0  0999 V2000
   33.1473    6.6858  -43.4142 N   0  0  0  0  0  0  0  0  0  0  0  0
   33.6543    6.1682  -44.6797 C   0  0  0  0  0  0  0  0  0  0  0  0
   33.6844    7.2471  -45.7519 C   0  0  0  0  0  0  0  0  0  0  0  0
   32.2923    7.6276  -46.2121 C   0  0  0  0  0  0  0  0  0  0  0  0
   31.5355    6.8074  -46.7358 O   0  0  0  0  0  0  0  0  0  0  0  0
   31.8636    9.0546  -46.0223 C   0  0  0  0  0  0  0  0  0  0  0  0
   31.4279    9.3617  -44.6165 C   0  0  0  0  0  0  0  0  0  0  0  0
   32.2214    9.8377  -43.8016 O   0  0  0  0  0  0  0  0  0  0  0  0
   29.9977    9.0458  -44.2399 C   0  0  0  0  0  0  0  0  0  0  0  0
   29.9057    7.7399  -43.4648 C   0  0  0  0  0  0  0  0  0  0  0  0
   28.4854    7.3535  -43.2000 C   0  0  0  0  0  0  0  0  0  0  0  0
   27.7388    7.6734  -42.0833 C   0  0  0  0  0  0  0  0  0  0  0  0
   26.4885    7.1371  -42.2350 N   0  0  0  0  0  0  0  0  0  0  0  0
   26.3968    6.4721  -43.4352 C   0  0  0  0  0  0  0  0  0  0  0  0
   25.3198    5.7831  -44.0061 C   0  0  0  0  0  0  0  0  0  0  0  0
   25.5190    5.1928  -45.2577 C   0  0  0  0  0  0  0  0  0  0  0  0
   26.7462    5.2889  -45.9093 C   0  0  0  0  0  0  0  0  0  0  0  0
   27.8124    5.9816  -45.3244 C   0  0  0  0  0  0  0  0  0  0  0  0
   27.6373    6.5866  -44.0626 C   0  0  0  0  0  0  0  0  0  0  0  0
  1  2  1  0
  2  3  1  0
  3  4  1  0
  4  5  2  0
  4  6  1  0
  6  7  1  0
  7  8  2  0
  7  9  1  0
  9 10  1  0
 10 11  1  0
 11 12  2  0
 12 13  1  0
 13 14  1  0
 14 15  2  0
 15 16  1  0
 16 17  2  0
 17 18  1  0
 18 19  2  0
 19 11  1  0
 19 14  1  0
M  END
$$$$
