
     RDKit          3D

 20 21  0  0  0  0  0  0  0  0999 V2000
  -14.0012  -31.8714   -8.3201 C   0  0  0  0  0  0  0  0  0  0  0  0
  -15.3528  -31.6698   -8.8254 N   0  0  0  0  0  0  0  0  0  0  0  0
  -16.3022  -32.5602   -8.1579 C   0  0  0  0  0  0  0  0  0  0  0  0
  -17.7241  -32.3507   -8.6846 C   0  0  0  0  0  0  0  0  0  0  0  0
  -18.2678  -30.9506   -8.3844 C   0  0  0  0  0  0  0  0  0  0  0  0
  -19.7053  -30.8103   -8.8283 C   0  0  0  0  0  0  0  0  0  0  0  0
  -20.0040  -30.4011  -10.1302 C   0  0  0  0  0  0  0  0  0  0  0  0
  -21.3295  -30.2879  -10.5366 C   0  0  0  0  0  0  0  0  0  0  0  0
  -22.3621  -30.5803   -9.6410 C   0  0  0  0  0  0  0  0  0  0  0  0
  -23.6416  -30.4191  -10.1244 O   0  0  0  0  0  0  0  0  0  0  0  0
  -24.2243  -29.2321   -9.5852 C   0  0  0  0  0  0  0  0  0  0  0  0
  -22.1058  -31.0459   -8.3304 C   0  0  0  0  0  0  0  0  0  0  0  0
  -23.1610  -31.4027   -7.4662 N   0  0  0  0  0  0  0  0  0  0  0  0
  -23.9137  -32.5807   -7.9261 C   0  0  0  0  0  0  0  0  0  0  0  0
  -25.2787  -32.5804   -7.2419 C   0  0  0  0  0  0  0  0  0  0  0  0
  -25.1362  -32.6270   -5.7282 C   0  0  0  0  0  0  0  0  0  0  0  0
  -24.2053  -31.5390   -5.2394 C   0  0  0  0  0  0  0  0  0  0  0  0
  -24.4272  -30.9410   -4.1846 O   0  0  0  0  0  0  0  0  0  0  0  0
  -22.9080  -31.3557   -6.0159 C   0  0  0  0  0  0  0  0  0  0  0  0
  -20.7555  -31.1318   -7.9468 C   0  0  0  0  0  0  0  0  0  0  0  0
  1  2  1  0
  2  3  1  0
  3  4  1  0
  4  5  1  0
  5  6  1  0
  6  7  2  0
  7  8  1  0
  8  9  2  0
  9 10  1  0
 10 11  1  0
  9 12  1  0
 12 13  1  0
 13 14  1  0
 14 15  1  0
 15 16  1  0
 16 17  1  0
 17 18  2  0
 17 19  1  0
 12 20  2  0
 20  6  1  0
 19 13  1  0
M  END
$$$$
