
     RDKit          3D

 28 31  0  0  0  0  0  0  0  0999 V2000
   12.7848    0.8418    1.4938 N   0  0  0  0  0  0  0  0  0  0  0  0
   14.0589    1.5483    1.5909 C   0  0  0  0  0  0  0  0  0  0  0  0
   14.2436    2.5576    0.4768 C   0  0  0  0  0  0  0  0  0  0  0  0
   13.5866    3.8012    0.6214 C   0  0  0  0  0  0  0  0  0  0  0  0
   13.7538    4.8206   -0.3114 C   0  0  0  0  0  0  0  0  0  0  0  0
   14.5858    4.6021   -1.3953 C   0  0  0  0  0  0  0  0  0  0  0  0
   14.7932    5.5667   -2.3378 O   0  0  0  0  0  0  0  0  0  0  0  0
   15.2375    3.3823   -1.5629 C   0  0  0  0  0  0  0  0  0  0  0  0
   15.0746    2.3252   -0.6490 C   0  0  0  0  0  0  0  0  0  0  0  0
   15.7107    1.1001   -0.8492 N   0  0  0  0  0  0  0  0  0  0  0  0
   14.8372   -0.0720   -1.0641 C   0  0  0  0  0  0  0  0  0  0  0  0
   14.9973   -0.6800   -2.4502 C   0  0  0  0  0  0  0  0  0  0  0  0
   14.0625   -1.2392   -3.0299 O   0  0  0  0  0  0  0  0  0  0  0  0
   16.3876   -0.7196   -3.0322 C   0  0  0  0  0  0  0  0  0  0  0  0
   17.0722    0.6205   -2.8202 C   0  0  0  0  0  0  0  0  0  0  0  0
   17.0898    1.0268   -1.3307 C   0  0  0  0  0  0  0  0  0  0  0  0
   17.9996    0.1095   -0.6360 N   0  0  0  0  0  0  0  0  0  0  0  0
   18.1848    0.5062    0.7523 C   0  0  0  0  0  0  0  0  0  0  0  0
   18.8750    1.7379    1.0796 N   0  0  0  0  0  0  0  0  0  0  0  0
   20.1443    1.9263    0.6642 C   0  0  0  0  0  0  0  0  0  0  0  0
   20.6075    2.9663    0.0178 N   0  0  0  0  0  0  0  0  0  0  0  0
   21.9415    2.7066   -0.1852 C   0  0  0  0  0  0  0  0  0  0  0  0
   22.9174    3.4752   -0.8356 C   0  0  0  0  0  0  0  0  0  0  0  0
   24.2252    2.9782   -0.9077 C   0  0  0  0  0  0  0  0  0  0  0  0
   24.5544    1.7431   -0.3425 C   0  0  0  0  0  0  0  0  0  0  0  0
   23.5944    0.9622    0.3122 C   0  0  0  0  0  0  0  0  0  0  0  0
   22.2993    1.4807    0.3656 C   0  0  0  0  0  0  0  0  0  0  0  0
   21.1340    1.0128    0.9150 N   0  0  0  0  0  0  0  0  0  0  0  0
  1  2  1  0
  2  3  1  0
  3  4  2  0
  4  5  1  0
  5  6  2  0
  6  7  1  0
  6  8  1  0
  8  9  2  0
  9 10  1  0
 10 11  1  0
 11 12  1  0
 12 13  2  0
 12 14  1  0
 14 15  1  0
 15 16  1  0
 16 17  1  0
 17 18  1  0
 18 19  1  0
 19 20  1  0
 20 21  2  0
 21 22  1  0
 22 23  2  0
 23 24  1  0
 24 25  2  0
 25 26  1  0
 26 27  2  0
 27 28  1  0
  9  3  1  0
 16 10  1  0
 28 20  1  0
 27 22  1  0
M  END
$$$$
