
     RDKit          3D

 32 35  0  0  0  0  0  0  0  0999 V2000
  -11.5986    1.5151   -0.0775 N   0  0  0  0  0  0  0  0  0  0  0  0
  -10.7639    2.6503    0.3252 C   0  0  0  0  0  0  0  0  0  0  0  0
  -11.6050    3.7764    0.8833 C   0  0  0  0  0  0  0  0  0  0  0  0
  -12.3461    3.5352    2.0603 C   0  0  0  0  0  0  0  0  0  0  0  0
  -13.1191    4.5354    2.6421 C   0  0  0  0  0  0  0  0  0  0  0  0
  -13.1614    5.7862    2.0376 C   0  0  0  0  0  0  0  0  0  0  0  0
  -14.1433    7.0767    2.7460 S   0  0  0  0  0  0  0  0  0  0  0  0
  -15.6147    6.8417    1.9539 N   0  0  0  0  0  0  0  0  0  0  0  0
  -13.6098    8.3502    2.3240 O   0  0  0  0  0  0  0  0  0  0  0  0
  -14.3934    6.7606    4.1332 O   0  0  0  0  0  0  0  0  0  0  0  0
  -12.4339    6.0483    0.8729 C   0  0  0  0  0  0  0  0  0  0  0  0
  -11.6455    5.0516    0.2780 C   0  0  0  0  0  0  0  0  0  0  0  0
  -10.9009    5.3117   -0.8835 N   0  0  0  0  0  0  0  0  0  0  0  0
  -11.7131    5.6176   -2.0708 C   0  0  0  0  0  0  0  0  0  0  0  0
  -10.9922    6.5603   -3.0241 C   0  0  0  0  0  0  0  0  0  0  0  0
  -10.5705    7.8311   -2.2960 C   0  0  0  0  0  0  0  0  0  0  0  0
   -9.8700    7.5484   -0.9601 C   0  0  0  0  0  0  0  0  0  0  0  0
   -9.6248    6.0405   -0.7021 C   0  0  0  0  0  0  0  0  0  0  0  0
   -8.8907    5.8445    0.5501 N   0  0  0  0  0  0  0  0  0  0  0  0
   -7.4409    5.7073    0.4422 C   0  0  0  0  0  0  0  0  0  0  0  0
   -6.6867    6.9971    0.0634 C   0  0  0  0  0  0  0  0  0  0  0  0
   -5.2304    6.9230    0.1520 N   0  0  0  0  0  0  0  0  0  0  0  0
   -4.7397    6.9071    1.5262 C   0  0  0  0  0  0  0  0  0  0  0  0
   -3.2555    7.0846    1.4732 C   0  0  0  0  0  0  0  0  0  0  0  0
   -2.5836    8.2759    1.2641 C   0  0  0  0  0  0  0  0  0  0  0  0
   -1.2409    8.0250    1.2706 N   0  0  0  0  0  0  0  0  0  0  0  0
   -1.0078    6.6877    1.4904 C   0  0  0  0  0  0  0  0  0  0  0  0
    0.2026    5.9894    1.5779 C   0  0  0  0  0  0  0  0  0  0  0  0
    0.1403    4.6120    1.8075 C   0  0  0  0  0  0  0  0  0  0  0  0
   -1.0838    3.9624    1.9427 C   0  0  0  0  0  0  0  0  0  0  0  0
   -2.2849    4.6765    1.8524 C   0  0  0  0  0  0  0  0  0  0  0  0
   -2.2522    6.0695    1.6226 C   0  0  0  0  0  0  0  0  0  0  0  0
  1  2  1  0
  2  3  1  0
  3  4  2  0
  4  5  1  0
  5  6  2  0
  6  7  1  0
  7  8  1  0
  7  9  2  0
  7 10  2  0
  6 11  1  0
 11 12  2  0
 12 13  1  0
 13 14  1  0
 14 15  1  0
 15 16  1  0
 16 17  1  0
 17 18  1  0
 18 19  1  0
 19 20  1  0
 20 21  1  0
 21 22  1  0
 22 23  1  0
 23 24  1  0
 24 25  2  0
 25 26  1  0
 26 27  1  0
 27 28  2  0
 28 29  1  0
 29 30  2  0
 30 31  1  0
 31 32  2  0
 12  3  1  0
 18 13  1  0
 32 24  1  0
 32 27  1  0
M  END
$$$$
