
     RDKit          3D

 15 16  0  0  0  0  0  0  0  0999 V2000
  -10.1909    5.2864    4.9359 N   0  0  0  0  0  0  0  0  0  0  0  0
  -11.3257    4.9287    4.0932 C   0  0  0  0  0  0  0  0  0  0  0  0
  -11.2540    3.4614    3.6707 C   0  0  0  0  0  0  0  0  0  0  0  0
  -12.3915    3.0679    2.7303 C   0  0  0  0  0  0  0  0  0  0  0  0
  -13.7254    3.0037    3.4557 C   0  0  0  0  0  0  0  0  0  0  0  0
  -13.9241    2.0842    4.2527 O   0  0  0  0  0  0  0  0  0  0  0  0
  -14.7386    4.0379    3.2160 C   0  0  0  0  0  0  0  0  0  0  0  0
  -14.6102    5.1560    2.4082 C   0  0  0  0  0  0  0  0  0  0  0  0
  -15.7770    5.8725    2.4624 N   0  0  0  0  0  0  0  0  0  0  0  0
  -16.6791    5.2507    3.2899 C   0  0  0  0  0  0  0  0  0  0  0  0
  -17.9839    5.6217    3.6380 C   0  0  0  0  0  0  0  0  0  0  0  0
  -18.6829    4.7900    4.5167 C   0  0  0  0  0  0  0  0  0  0  0  0
  -18.0977    3.6344    5.0256 C   0  0  0  0  0  0  0  0  0  0  0  0
  -16.7923    3.2797    4.6666 C   0  0  0  0  0  0  0  0  0  0  0  0
  -16.0603    4.0996    3.7801 C   0  0  0  0  0  0  0  0  0  0  0  0
  1  2  1  0
  2  3  1  0
  3  4  1  0
  4  5  1  0
  5  6  2  0
  5  7  1  0
  7  8  2  0
  8  9  1  0
  9 10  1  0
 10 11  2  0
 11 12  1  0
 12 13  2  0
 13 14  1  0
 14 15  2  0
 15  7  1  0
 15 10  1  0
M  END
$$$$
