
     RDKit          3D

 32 35  0  0  0  0  0  0  0  0999 V2000
    8.4621  -12.4426    7.0278 N   0  0  0  0  0  0  0  0  0  0  0  0
    7.6124  -12.0919    8.1612 C   0  0  0  0  0  0  0  0  0  0  0  0
    6.2663  -12.7675    8.0714 C   0  0  0  0  0  0  0  0  0  0  0  0
    6.1684  -14.1336    8.3901 C   0  0  0  0  0  0  0  0  0  0  0  0
    4.9347  -14.7608    8.3135 C   0  0  0  0  0  0  0  0  0  0  0  0
    3.8022  -14.1393    7.9319 N   0  0  0  0  0  0  0  0  0  0  0  0
    3.9220  -12.8312    7.6092 C   0  0  0  0  0  0  0  0  0  0  0  0
    5.1032  -12.0779    7.6784 C   0  0  0  0  0  0  0  0  0  0  0  0
    5.1533  -10.6983    7.3684 N   0  0  0  0  0  0  0  0  0  0  0  0
    5.3207  -10.5201    5.9074 C   0  0  0  0  0  0  0  0  0  0  0  0
    5.3996   -9.0481    5.5297 C   0  0  0  0  0  0  0  0  0  0  0  0
    6.0977   -8.6470    4.5969 O   0  0  0  0  0  0  0  0  0  0  0  0
    4.4396   -8.1167    6.2316 C   0  0  0  0  0  0  0  0  0  0  0  0
    4.4077   -8.4091    7.7203 C   0  0  0  0  0  0  0  0  0  0  0  0
    4.1009   -9.8845    7.9931 C   0  0  0  0  0  0  0  0  0  0  0  0
    4.1467  -10.0729    9.4051 O   0  0  0  0  0  0  0  0  0  0  0  0
    2.8756  -10.0042   10.0157 C   0  0  0  0  0  0  0  0  0  0  0  0
    2.3759  -11.3406   10.0871 N   0  0  0  0  0  0  0  0  0  0  0  0
    1.0436  -11.5962   10.3075 C   0  0  0  0  0  0  0  0  0  0  0  0
    0.1878  -10.7198   10.3343 O   0  0  0  0  0  0  0  0  0  0  0  0
    0.7081  -13.0224   10.5399 C   0  0  0  0  0  0  0  0  0  0  0  0
    1.3800  -13.6608   11.5924 C   0  0  0  0  0  0  0  0  0  0  0  0
    1.0412  -14.9649   11.8967 C   0  0  0  0  0  0  0  0  0  0  0  0
    0.0944  -15.6564   11.2401 N   0  0  0  0  0  0  0  0  0  0  0  0
   -0.5322  -15.0106   10.2245 C   0  0  0  0  0  0  0  0  0  0  0  0
   -0.2792  -13.6991    9.8071 C   0  0  0  0  0  0  0  0  0  0  0  0
   -1.0118  -13.2021    8.7210 N   0  0  0  0  0  0  0  0  0  0  0  0
   -0.2379  -12.6847    7.5924 C   0  0  0  0  0  0  0  0  0  0  0  0
   -1.1569  -12.5670    6.3773 C   0  0  0  0  0  0  0  0  0  0  0  0
   -2.4542  -11.8099    6.6824 C   0  0  0  0  0  0  0  0  0  0  0  0
   -2.5297  -11.3218    8.1254 C   0  0  0  0  0  0  0  0  0  0  0  0
   -2.2077  -12.4397    9.1187 C   0  0  0  0  0  0  0  0  0  0  0  0
  1  2  1  0
  2  3  1  0
  3  4  2  0
  4  5  1  0
  5  6  2  0
  6  7  1  0
  7  8  2  0
  8  9  1  0
  9 10  1  0
 10 11  1  0
 11 12  2  0
 11 13  1  0
 13 14  1  0
 14 15  1  0
 15 16  1  0
 16 17  1  0
 17 18  1  0
 18 19  1  0
 19 20  2  0
 19 21  1  0
 21 22  2  0
 22 23  1  0
 23 24  2  0
 24 25  1  0
 25 26  2  0
 26 27  1  0
 27 28  1  0
 28 29  1  0
 29 30  1  0
 30 31  1  0
 31 32  1  0
  8  3  1  0
 15  9  1  0
 26 21  1  0
 32 27  1  0
M  END
$$$$
