
     RDKit          3D

 31 34  0  0  0  0  0  0  0  0999 V2000
  -33.1870    3.7504  -17.6474 N   0  0  0  0  0  0  0  0  0  0  0  0
  -31.7644    3.5357  -17.3210 C   0  0  0  0  0  0  0  0  0  0  0  0
  -30.8809    3.5284  -18.5723 C   0  0  0  0  0  0  0  0  0  0  0  0
  -31.3697    3.7873  -19.6808 O   0  0  0  0  0  0  0  0  0  0  0  0
  -29.0923    3.1494  -18.5161 S   0  0  0  0  0  0  0  0  0  0  0  0
  -28.5989    3.8676  -17.3518 O   0  0  0  0  0  0  0  0  0  0  0  0
  -29.0645    1.6997  -18.5787 O   0  0  0  0  0  0  0  0  0  0  0  0
  -28.3366    3.8885  -19.9374 C   0  0  0  0  0  0  0  0  0  0  0  0
  -28.8204    5.1390  -20.3528 C   0  0  0  0  0  0  0  0  0  0  0  0
  -28.2947    5.7043  -21.4971 C   0  0  0  0  0  0  0  0  0  0  0  0
  -27.3281    5.1262  -22.2266 N   0  0  0  0  0  0  0  0  0  0  0  0
  -26.8589    3.9350  -21.7773 C   0  0  0  0  0  0  0  0  0  0  0  0
  -27.3012    3.2524  -20.6351 C   0  0  0  0  0  0  0  0  0  0  0  0
  -26.7071    2.0623  -20.2246 N   0  0  0  0  0  0  0  0  0  0  0  0
  -26.4011    1.0633  -21.2497 C   0  0  0  0  0  0  0  0  0  0  0  0
  -26.5145   -0.3334  -20.6312 C   0  0  0  0  0  0  0  0  0  0  0  0
  -26.0107   -0.3998  -19.1869 C   0  0  0  0  0  0  0  0  0  0  0  0
  -25.0640    0.7525  -18.8742 C   0  0  0  0  0  0  0  0  0  0  0  0
  -25.7560    2.1212  -19.0732 C   0  0  0  0  0  0  0  0  0  0  0  0
  -24.7054    3.2725  -19.1560 C   0  0  0  0  0  0  0  0  0  0  0  0
  -23.8446    3.2370  -20.3512 N   0  0  0  0  0  0  0  0  0  0  0  0
  -22.9932    4.4232  -20.4635 C   0  0  0  0  0  0  0  0  0  0  0  0
  -21.8589    4.3450  -19.4918 C   0  0  0  0  0  0  0  0  0  0  0  0
  -21.7431    5.0419  -18.3025 C   0  0  0  0  0  0  0  0  0  0  0  0
  -20.5634    4.6883  -17.7063 N   0  0  0  0  0  0  0  0  0  0  0  0
  -19.8929    3.7729  -18.4828 C   0  0  0  0  0  0  0  0  0  0  0  0
  -18.6621    3.1402  -18.2707 C   0  0  0  0  0  0  0  0  0  0  0  0
  -18.2166    2.2451  -19.2476 C   0  0  0  0  0  0  0  0  0  0  0  0
  -18.9720    1.9969  -20.3909 C   0  0  0  0  0  0  0  0  0  0  0  0
  -20.2003    2.6384  -20.5870 C   0  0  0  0  0  0  0  0  0  0  0  0
  -20.6755    3.5434  -19.6147 C   0  0  0  0  0  0  0  0  0  0  0  0
  1  2  1  0
  2  3  1  0
  3  4  2  0
  3  5  1  0
  5  6  2  0
  5  7  2  0
  5  8  1  0
  8  9  2  0
  9 10  1  0
 10 11  2  0
 11 12  1  0
 12 13  2  0
 13 14  1  0
 14 15  1  0
 15 16  1  0
 16 17  1  0
 17 18  1  0
 18 19  1  0
 19 20  1  0
 20 21  1  0
 21 22  1  0
 22 23  1  0
 23 24  2  0
 24 25  1  0
 25 26  1  0
 26 27  2  0
 27 28  1  0
 28 29  2  0
 29 30  1  0
 30 31  2  0
 13  8  1  0
 19 14  1  0
 31 23  1  0
 31 26  1  0
M  END
$$$$
