
     RDKit          3D

 32 35  0  0  0  0  0  0  0  0999 V2000
    6.8227   16.8405    1.3422 N   0  0  0  0  0  0  0  0  0  0  0  0
    7.2416   17.1236    2.6596 C   0  0  0  0  0  0  0  0  0  0  0  0
    8.3854   17.9196    2.8337 C   0  0  0  0  0  0  0  0  0  0  0  0
    8.7835   18.3386    4.1059 C   0  0  0  0  0  0  0  0  0  0  0  0
    8.0174   17.9742    5.2082 C   0  0  0  0  0  0  0  0  0  0  0  0
    8.5185   18.4401    6.8408 S   0  0  0  0  0  0  0  0  0  0  0  0
    7.4813   19.7258    7.1649 N   0  0  0  0  0  0  0  0  0  0  0  0
    9.8388   19.0238    6.7656 O   0  0  0  0  0  0  0  0  0  0  0  0
    8.1934   17.3638    7.7445 O   0  0  0  0  0  0  0  0  0  0  0  0
    6.8601   17.2080    5.0479 C   0  0  0  0  0  0  0  0  0  0  0  0
    6.4259   16.8060    3.7732 C   0  0  0  0  0  0  0  0  0  0  0  0
    5.2572   16.0407    3.7087 N   0  0  0  0  0  0  0  0  0  0  0  0
    5.3942   14.7231    3.0521 C   0  0  0  0  0  0  0  0  0  0  0  0
    4.7763   14.6793    1.6628 C   0  0  0  0  0  0  0  0  0  0  0  0
    5.2038   13.9294    0.7801 O   0  0  0  0  0  0  0  0  0  0  0  0
    3.4807   15.4345    1.4623 C   0  0  0  0  0  0  0  0  0  0  0  0
    3.5007   16.7978    2.1424 C   0  0  0  0  0  0  0  0  0  0  0  0
    3.9219   16.6901    3.6180 C   0  0  0  0  0  0  0  0  0  0  0  0
    3.8250   18.0675    4.3358 C   0  0  0  0  0  0  0  0  0  0  0  0
    2.4555   18.5920    4.4624 N   0  0  0  0  0  0  0  0  0  0  0  0
    1.5667   17.8440    5.2768 C   0  0  0  0  0  0  0  0  0  0  0  0
    1.8997   17.4598    6.5767 C   0  0  0  0  0  0  0  0  0  0  0  0
    0.9836   16.7203    7.3070 C   0  0  0  0  0  0  0  0  0  0  0  0
   -0.2284   16.3533    6.8426 N   0  0  0  0  0  0  0  0  0  0  0  0
   -0.5439   16.7631    5.5916 C   0  0  0  0  0  0  0  0  0  0  0  0
    0.2918   17.5089    4.7580 C   0  0  0  0  0  0  0  0  0  0  0  0
   -0.0611   17.9568    3.4635 N   0  0  0  0  0  0  0  0  0  0  0  0
   -0.6004   19.3340    3.4879 C   0  0  0  0  0  0  0  0  0  0  0  0
   -2.0238   19.3919    2.9309 C   0  0  0  0  0  0  0  0  0  0  0  0
   -2.0963   18.8326    1.5100 C   0  0  0  0  0  0  0  0  0  0  0  0
   -1.1435   17.6573    1.2912 C   0  0  0  0  0  0  0  0  0  0  0  0
   -0.7670   16.9866    2.6141 C   0  0  0  0  0  0  0  0  0  0  0  0
  1  2  1  0
  2  3  2  0
  3  4  1  0
  4  5  2  0
  5  6  1  0
  6  7  1  0
  6  8  2  0
  6  9  2  0
  5 10  1  0
 10 11  2  0
 11 12  1  0
 12 13  1  0
 13 14  1  0
 14 15  2  0
 14 16  1  0
 16 17  1  0
 17 18  1  0
 18 19  1  0
 19 20  1  0
 20 21  1  0
 21 22  2  0
 22 23  1  0
 23 24  2  0
 24 25  1  0
 25 26  2  0
 26 27  1  0
 27 28  1  0
 28 29  1  0
 29 30  1  0
 30 31  1  0
 31 32  1  0
 11  2  1  0
 18 12  1  0
 26 21  1  0
 32 27  1  0
M  END
$$$$
