
     RDKit          3D

 19 20  0  0  0  0  0  0  0  0999 V2000
   21.8950   -6.9250    7.5686 N   0  0  0  0  0  0  0  0  0  0  0  0
   22.4021   -7.4427    6.3032 C   0  0  0  0  0  0  0  0  0  0  0  0
   22.4321   -6.3638    5.2310 C   0  0  0  0  0  0  0  0  0  0  0  0
   21.0400   -5.9833    4.7708 C   0  0  0  0  0  0  0  0  0  0  0  0
   20.2833   -6.8035    4.2471 O   0  0  0  0  0  0  0  0  0  0  0  0
   20.6114   -4.5563    4.9606 C   0  0  0  0  0  0  0  0  0  0  0  0
   20.1757   -4.2492    6.3663 C   0  0  0  0  0  0  0  0  0  0  0  0
   20.9691   -3.7731    7.1813 O   0  0  0  0  0  0  0  0  0  0  0  0
   18.7454   -4.5651    6.7430 C   0  0  0  0  0  0  0  0  0  0  0  0
   18.6534   -5.8709    7.5181 C   0  0  0  0  0  0  0  0  0  0  0  0
   17.2331   -6.2574    7.7828 C   0  0  0  0  0  0  0  0  0  0  0  0
   16.4865   -5.9375    8.8996 C   0  0  0  0  0  0  0  0  0  0  0  0
   15.2362   -6.4738    8.7479 N   0  0  0  0  0  0  0  0  0  0  0  0
   15.1445   -7.1388    7.5477 C   0  0  0  0  0  0  0  0  0  0  0  0
   14.0676   -7.8278    6.9768 C   0  0  0  0  0  0  0  0  0  0  0  0
   14.2667   -8.4181    5.7252 C   0  0  0  0  0  0  0  0  0  0  0  0
   15.4939   -8.3220    5.0736 C   0  0  0  0  0  0  0  0  0  0  0  0
   16.5601   -7.6292    5.6585 C   0  0  0  0  0  0  0  0  0  0  0  0
   16.3850   -7.0242    6.9203 C   0  0  0  0  0  0  0  0  0  0  0  0
  1  2  1  0
  2  3  1  0
  3  4  1  0
  4  5  2  0
  4  6  1  0
  6  7  1  0
  7  8  2  0
  7  9  1  0
  9 10  1  0
 10 11  1  0
 11 12  2  0
 12 13  1  0
 13 14  1  0
 14 15  2  0
 15 16  1  0
 16 17  2  0
 17 18  1  0
 18 19  2  0
 19 11  1  0
 19 14  1  0
M  END
$$$$
