
     RDKit          3D

 16 17  0  0  0  0  0  0  0  0999 V2000
   -1.7071   16.6359   46.8408 N   0  0  0  0  0  0  0  0  0  0  0  0
   -0.3515   16.4057   46.3531 C   0  0  0  0  0  0  0  0  0  0  0  0
    0.1002   14.9506   46.4860 C   0  0  0  0  0  0  0  0  0  0  0  0
    0.2427   14.4961   47.9409 C   0  0  0  0  0  0  0  0  0  0  0  0
    0.8271   13.1046   48.0399 C   0  0  0  0  0  0  0  0  0  0  0  0
   -0.0370   11.9999   48.0482 C   0  0  0  0  0  0  0  0  0  0  0  0
    0.4990   10.7249   48.1359 C   0  0  0  0  0  0  0  0  0  0  0  0
    1.8191   10.4711   48.2148 N   0  0  0  0  0  0  0  0  0  0  0  0
    2.6356   11.5517   48.1972 C   0  0  0  0  0  0  0  0  0  0  0  0
    2.2146   12.8850   48.1007 C   0  0  0  0  0  0  0  0  0  0  0  0
    3.1035   13.9767   48.0920 N   0  0  0  0  0  0  0  0  0  0  0  0
    3.7408   14.1940   49.3949 C   0  0  0  0  0  0  0  0  0  0  0  0
    4.3151   15.6130   49.4318 C   0  0  0  0  0  0  0  0  0  0  0  0
    4.9046   16.0598   48.0903 C   0  0  0  0  0  0  0  0  0  0  0  0
    5.2484   14.8702   47.2028 C   0  0  0  0  0  0  0  0  0  0  0  0
    4.0255   13.9831   46.9402 C   0  0  0  0  0  0  0  0  0  0  0  0
  1  2  1  0
  2  3  1  0
  3  4  1  0
  4  5  1  0
  5  6  2  0
  6  7  1  0
  7  8  2  0
  8  9  1  0
  9 10  2  0
 10 11  1  0
 11 12  1  0
 12 13  1  0
 13 14  1  0
 14 15  1  0
 15 16  1  0
 10  5  1  0
 16 11  1  0
M  END
$$$$
