
     RDKit          3D

 27 29  0  0  0  0  0  0  0  0999 V2000
  -18.2372  -19.9365    0.2498 N   0  0  0  0  0  0  0  0  0  0  0  0
  -18.5763  -18.6154   -0.3138 C   0  0  0  0  0  0  0  0  0  0  0  0
  -18.7305  -17.5657    0.8059 C   0  0  0  0  0  0  0  0  0  0  0  0
  -19.5669  -18.1291    1.8133 O   0  0  0  0  0  0  0  0  0  0  0  0
  -17.3559  -17.1037    1.3201 C   0  0  0  0  0  0  0  0  0  0  0  0
  -16.3458  -17.1537    0.6176 O   0  0  0  0  0  0  0  0  0  0  0  0
  -17.2535  -16.5191    2.6950 C   0  0  0  0  0  0  0  0  0  0  0  0
  -18.3162  -15.7328    3.1711 C   0  0  0  0  0  0  0  0  0  0  0  0
  -18.2424  -15.1209    4.4227 C   0  0  0  0  0  0  0  0  0  0  0  0
  -17.1020  -15.2801    5.2002 C   0  0  0  0  0  0  0  0  0  0  0  0
  -17.0051  -14.5114    6.7367 Cl  0  0  0  0  0  0  0  0  0  0  0  0
  -16.0350  -16.0532    4.7409 C   0  0  0  0  0  0  0  0  0  0  0  0
  -16.0947  -16.7021    3.4905 C   0  0  0  0  0  0  0  0  0  0  0  0
  -14.9241  -17.5322    2.9924 C   0  0  0  0  0  0  0  0  0  0  0  0
  -13.9721  -18.0534    4.0555 C   0  0  0  0  0  0  0  0  0  0  0  0
  -14.3392  -18.7673    4.9853 O   0  0  0  0  0  0  0  0  0  0  0  0
  -12.6650  -17.6563    3.8902 N   0  0  0  0  0  0  0  0  0  0  0  0
  -11.6271  -18.1557    4.7609 C   0  0  0  0  0  0  0  0  0  0  0  0
  -10.3400  -17.5265    4.3549 C   0  0  0  0  0  0  0  0  0  0  0  0
   -9.7308  -16.4346    4.9443 C   0  0  0  0  0  0  0  0  0  0  0  0
   -8.5693  -16.1707    4.2695 N   0  0  0  0  0  0  0  0  0  0  0  0
   -8.4112  -17.0562    3.2312 C   0  0  0  0  0  0  0  0  0  0  0  0
   -7.3916  -17.1532    2.2763 C   0  0  0  0  0  0  0  0  0  0  0  0
   -7.4884  -18.1741    1.3272 C   0  0  0  0  0  0  0  0  0  0  0  0
   -8.5633  -19.0593    1.3336 C   0  0  0  0  0  0  0  0  0  0  0  0
   -9.5739  -18.9478    2.2942 C   0  0  0  0  0  0  0  0  0  0  0  0
   -9.5014  -17.9260    3.2624 C   0  0  0  0  0  0  0  0  0  0  0  0
  1  2  1  0
  2  3  1  0
  3  4  1  0
  3  5  1  0
  5  6  2  0
  5  7  1  0
  7  8  2  0
  8  9  1  0
  9 10  2  0
 10 11  1  0
 10 12  1  0
 12 13  2  0
 13 14  1  0
 14 15  1  0
 15 16  2  0
 15 17  1  0
 17 18  1  0
 18 19  1  0
 19 20  2  0
 20 21  1  0
 21 22  1  0
 22 23  2  0
 23 24  1  0
 24 25  2  0
 25 26  1  0
 26 27  2  0
 13  7  1  0
 27 19  1  0
 27 22  1  0
M  END
$$$$
