
     RDKit          3D

 26 28  0  0  0  0  0  0  0  0999 V2000
  -10.8065   62.3774   21.5408 N   0  0  0  0  0  0  0  0  0  0  0  0
  -10.3530   61.6095   22.7009 C   0  0  0  0  0  0  0  0  0  0  0  0
  -10.4508   62.4250   23.9838 C   0  0  0  0  0  0  0  0  0  0  0  0
  -11.8897   62.6304   24.4094 C   0  0  0  0  0  0  0  0  0  0  0  0
  -12.6591   61.6740   24.5206 O   0  0  0  0  0  0  0  0  0  0  0  0
  -12.3062   64.0455   24.7744 C   0  0  0  0  0  0  0  0  0  0  0  0
  -13.7783   64.3281   24.4522 C   0  0  0  0  0  0  0  0  0  0  0  0
  -14.1554   64.2595   22.9808 C   0  0  0  0  0  0  0  0  0  0  0  0
  -13.3062   64.8765   22.0406 C   0  0  0  0  0  0  0  0  0  0  0  0
  -13.5456   64.7158   20.6874 C   0  0  0  0  0  0  0  0  0  0  0  0
  -14.5663   63.9956   20.2020 N   0  0  0  0  0  0  0  0  0  0  0  0
  -15.4089   63.4649   21.1221 C   0  0  0  0  0  0  0  0  0  0  0  0
  -15.3031   63.5784   22.5176 C   0  0  0  0  0  0  0  0  0  0  0  0
  -16.2847   63.0601   23.3442 N   0  0  0  0  0  0  0  0  0  0  0  0
  -16.9368   63.8845   24.3697 C   0  0  0  0  0  0  0  0  0  0  0  0
  -16.8843   63.2028   25.7320 C   0  0  0  0  0  0  0  0  0  0  0  0
  -16.8375   63.8568   26.7777 O   0  0  0  0  0  0  0  0  0  0  0  0
  -17.0289   61.6950   25.7654 C   0  0  0  0  0  0  0  0  0  0  0  0
  -16.2995   61.0471   24.5909 C   0  0  0  0  0  0  0  0  0  0  0  0
  -16.7473   61.6661   23.2357 C   0  0  0  0  0  0  0  0  0  0  0  0
  -18.1921   61.4090   22.9969 N   0  0  0  0  0  0  0  0  0  0  0  0
  -18.6719   62.1361   21.8081 C   0  0  0  0  0  0  0  0  0  0  0  0
  -20.1815   61.9760   21.6205 C   0  0  0  0  0  0  0  0  0  0  0  0
  -20.5657   60.5087   21.5032 C   0  0  0  0  0  0  0  0  0  0  0  0
  -19.9974   59.7251   22.6767 C   0  0  0  0  0  0  0  0  0  0  0  0
  -18.4956   59.9724   22.8492 C   0  0  0  0  0  0  0  0  0  0  0  0
  1  2  1  0
  2  3  1  0
  3  4  1  0
  4  5  2  0
  4  6  1  0
  6  7  1  0
  7  8  1  0
  8  9  2  0
  9 10  1  0
 10 11  2  0
 11 12  1  0
 12 13  2  0
 13 14  1  0
 14 15  1  0
 15 16  1  0
 16 17  2  0
 16 18  1  0
 18 19  1  0
 19 20  1  0
 20 21  1  0
 21 22  1  0
 22 23  1  0
 23 24  1  0
 24 25  1  0
 25 26  1  0
 13  8  1  0
 20 14  1  0
 26 21  1  0
M  END
$$$$
