
     RDKit          3D

 19 20  0  0  0  0  0  0  0  0999 V2000
  -34.0279  -17.5107   30.8442 N   0  0  0  0  0  0  0  0  0  0  0  0
  -33.5208  -18.0283   29.5787 C   0  0  0  0  0  0  0  0  0  0  0  0
  -33.4908  -16.9494   28.5065 C   0  0  0  0  0  0  0  0  0  0  0  0
  -34.8829  -16.5689   28.0463 C   0  0  0  0  0  0  0  0  0  0  0  0
  -35.6397  -17.3891   27.5226 O   0  0  0  0  0  0  0  0  0  0  0  0
  -35.3116  -15.1419   28.2361 C   0  0  0  0  0  0  0  0  0  0  0  0
  -35.7473  -14.8348   29.6419 C   0  0  0  0  0  0  0  0  0  0  0  0
  -34.9538  -14.3588   30.4569 O   0  0  0  0  0  0  0  0  0  0  0  0
  -37.1775  -15.1507   30.0186 C   0  0  0  0  0  0  0  0  0  0  0  0
  -37.2695  -16.4566   30.7937 C   0  0  0  0  0  0  0  0  0  0  0  0
  -38.6898  -16.8430   31.0584 C   0  0  0  0  0  0  0  0  0  0  0  0
  -39.4364  -16.5231   32.1751 C   0  0  0  0  0  0  0  0  0  0  0  0
  -40.6867  -17.0594   32.0235 N   0  0  0  0  0  0  0  0  0  0  0  0
  -40.7784  -17.7245   30.8232 C   0  0  0  0  0  0  0  0  0  0  0  0
  -41.8554  -18.4134   30.2523 C   0  0  0  0  0  0  0  0  0  0  0  0
  -41.6562  -19.0037   29.0007 C   0  0  0  0  0  0  0  0  0  0  0  0
  -40.4290  -18.9076   28.3491 C   0  0  0  0  0  0  0  0  0  0  0  0
  -39.3628  -18.2149   28.9340 C   0  0  0  0  0  0  0  0  0  0  0  0
  -39.5379  -17.6099   30.1959 C   0  0  0  0  0  0  0  0  0  0  0  0
  1  2  1  0
  2  3  1  0
  3  4  1  0
  4  5  2  0
  4  6  1  0
  6  7  1  0
  7  8  2  0
  7  9  1  0
  9 10  1  0
 10 11  1  0
 11 12  2  0
 12 13  1  0
 13 14  1  0
 14 15  2  0
 15 16  1  0
 16 17  2  0
 17 18  1  0
 18 19  2  0
 19 11  1  0
 19 14  1  0
M  END
$$$$
