
     RDKit          3D

 16 17  0  0  0  0  0  0  0  0999 V2000
    5.3859   -5.0380   13.0959 N   0  0  0  0  0  0  0  0  0  0  0  0
    5.9474   -6.1288   13.8811 C   0  0  0  0  0  0  0  0  0  0  0  0
    4.8511   -6.8165   14.6916 C   0  0  0  0  0  0  0  0  0  0  0  0
    5.4336   -7.8986   15.5917 C   0  0  0  0  0  0  0  0  0  0  0  0
    4.3661   -8.7871   16.1998 C   0  0  0  0  0  0  0  0  0  0  0  0
    4.3174   -9.9868   15.9128 O   0  0  0  0  0  0  0  0  0  0  0  0
    3.3904   -8.1628   17.1806 C   0  0  0  0  0  0  0  0  0  0  0  0
    2.0846   -7.8194   16.5426 C   0  0  0  0  0  0  0  0  0  0  0  0
    1.2177   -8.7053   15.9305 C   0  0  0  0  0  0  0  0  0  0  0  0
    0.1328   -8.0090   15.4759 N   0  0  0  0  0  0  0  0  0  0  0  0
    0.2603   -6.6763   15.7871 C   0  0  0  0  0  0  0  0  0  0  0  0
   -0.6020   -5.6048   15.5244 C   0  0  0  0  0  0  0  0  0  0  0  0
   -0.2140   -4.3369   15.9652 C   0  0  0  0  0  0  0  0  0  0  0  0
    0.9877   -4.1513   16.6429 C   0  0  0  0  0  0  0  0  0  0  0  0
    1.8374   -5.2342   16.8985 C   0  0  0  0  0  0  0  0  0  0  0  0
    1.4728   -6.5253   16.4619 C   0  0  0  0  0  0  0  0  0  0  0  0
  1  2  1  0
  2  3  1  0
  3  4  1  0
  4  5  1  0
  5  6  2  0
  5  7  1  0
  7  8  1  0
  8  9  2  0
  9 10  1  0
 10 11  1  0
 11 12  2  0
 12 13  1  0
 13 14  2  0
 14 15  1  0
 15 16  2  0
 16  8  1  0
 16 11  1  0
M  END
$$$$
