
     RDKit          3D

 19 20  0  0  0  0  0  0  0  0999 V2000
   12.4679   20.5309  -21.6891 N   0  0  0  0  0  0  0  0  0  0  0  0
   12.9749   20.0132  -22.9546 C   0  0  0  0  0  0  0  0  0  0  0  0
   13.0049   21.0922  -24.0268 C   0  0  0  0  0  0  0  0  0  0  0  0
   11.6129   21.4726  -24.4870 C   0  0  0  0  0  0  0  0  0  0  0  0
   10.8561   20.6524  -25.0107 O   0  0  0  0  0  0  0  0  0  0  0  0
   11.1842   22.8996  -24.2972 C   0  0  0  0  0  0  0  0  0  0  0  0
   10.7485   23.2067  -22.8914 C   0  0  0  0  0  0  0  0  0  0  0  0
   11.5420   23.6828  -22.0765 O   0  0  0  0  0  0  0  0  0  0  0  0
    9.3183   22.8908  -22.5148 C   0  0  0  0  0  0  0  0  0  0  0  0
    9.2262   21.5850  -21.7397 C   0  0  0  0  0  0  0  0  0  0  0  0
    7.8060   21.1985  -21.4749 C   0  0  0  0  0  0  0  0  0  0  0  0
    7.0593   21.5184  -20.3582 C   0  0  0  0  0  0  0  0  0  0  0  0
    5.8090   20.9822  -20.5099 N   0  0  0  0  0  0  0  0  0  0  0  0
    5.7173   20.3171  -21.7101 C   0  0  0  0  0  0  0  0  0  0  0  0
    4.6404   19.6282  -22.2810 C   0  0  0  0  0  0  0  0  0  0  0  0
    4.8396   19.0378  -23.5326 C   0  0  0  0  0  0  0  0  0  0  0  0
    6.0668   19.1339  -24.1842 C   0  0  0  0  0  0  0  0  0  0  0  0
    7.1330   19.8267  -23.5993 C   0  0  0  0  0  0  0  0  0  0  0  0
    6.9578   20.4317  -22.3375 C   0  0  0  0  0  0  0  0  0  0  0  0
  1  2  1  0
  2  3  1  0
  3  4  1  0
  4  5  2  0
  4  6  1  0
  6  7  1  0
  7  8  2  0
  7  9  1  0
  9 10  1  0
 10 11  1  0
 11 12  2  0
 12 13  1  0
 13 14  1  0
 14 15  2  0
 15 16  1  0
 16 17  2  0
 17 18  1  0
 18 19  2  0
 19 11  1  0
 19 14  1  0
M  END
$$$$
