
     RDKit          3D

 19 20  0  0  0  0  0  0  0  0999 V2000
   16.8803  -11.9198    3.0585 N   0  0  0  0  0  0  0  0  0  0  0  0
   17.3873  -12.4374    1.7930 C   0  0  0  0  0  0  0  0  0  0  0  0
   17.4174  -11.3585    0.7208 C   0  0  0  0  0  0  0  0  0  0  0  0
   16.0253  -10.9780    0.2606 C   0  0  0  0  0  0  0  0  0  0  0  0
   15.2685  -11.7982   -0.2631 O   0  0  0  0  0  0  0  0  0  0  0  0
   15.5966   -9.5510    0.4504 C   0  0  0  0  0  0  0  0  0  0  0  0
   15.1609   -9.2439    1.8562 C   0  0  0  0  0  0  0  0  0  0  0  0
   15.9544   -8.7679    2.6712 O   0  0  0  0  0  0  0  0  0  0  0  0
   13.7307   -9.5598    2.2329 C   0  0  0  0  0  0  0  0  0  0  0  0
   13.6387  -10.8656    3.0080 C   0  0  0  0  0  0  0  0  0  0  0  0
   12.2184  -11.2521    3.2727 C   0  0  0  0  0  0  0  0  0  0  0  0
   11.4718  -10.9322    4.3894 C   0  0  0  0  0  0  0  0  0  0  0  0
   10.2215  -11.4685    4.2378 N   0  0  0  0  0  0  0  0  0  0  0  0
   10.1298  -12.1335    3.0376 C   0  0  0  0  0  0  0  0  0  0  0  0
    9.0528  -12.8225    2.4667 C   0  0  0  0  0  0  0  0  0  0  0  0
    9.2520  -13.4128    1.2150 C   0  0  0  0  0  0  0  0  0  0  0  0
   10.4792  -13.3167    0.5634 C   0  0  0  0  0  0  0  0  0  0  0  0
   11.5454  -12.6239    1.1484 C   0  0  0  0  0  0  0  0  0  0  0  0
   11.3703  -12.0190    2.4102 C   0  0  0  0  0  0  0  0  0  0  0  0
  1  2  1  0
  2  3  1  0
  3  4  1  0
  4  5  2  0
  4  6  1  0
  6  7  1  0
  7  8  2  0
  7  9  1  0
  9 10  1  0
 10 11  1  0
 11 12  2  0
 12 13  1  0
 13 14  1  0
 14 15  2  0
 15 16  1  0
 16 17  2  0
 17 18  1  0
 18 19  2  0
 19 11  1  0
 19 14  1  0
M  END
$$$$
