
     RDKit          3D

 29 32  0  0  0  0  0  0  0  0999 V2000
  -47.4714   -1.2756   28.3389 N   0  0  0  0  0  0  0  0  0  0  0  0
  -47.4690   -1.0201   26.8750 C   0  0  0  0  0  0  0  0  0  0  0  0
  -47.6905   -2.3488   26.1208 C   0  0  0  0  0  0  0  0  0  0  0  0
  -47.1961   -3.4623   26.8517 O   0  0  0  0  0  0  0  0  0  0  0  0
  -49.1900   -2.4200   25.9553 C   0  0  0  0  0  0  0  0  0  0  0  0
  -49.5174   -0.9981   25.5409 C   0  0  0  0  0  0  0  0  0  0  0  0
  -48.6307   -0.0702   26.4229 C   0  0  0  0  0  0  0  0  0  0  0  0
  -48.2354    1.1810   25.7274 N   0  0  0  0  0  0  0  0  0  0  0  0
  -49.3902    1.8907   25.1137 C   0  0  0  0  0  0  0  0  0  0  0  0
  -49.9501    3.0903   25.9036 C   0  0  0  0  0  0  0  0  0  0  0  0
  -49.7464    2.9380   27.4046 C   0  0  0  0  0  0  0  0  0  0  0  0
  -48.2729    2.6886   27.7401 C   0  0  0  0  0  0  0  0  0  0  0  0
  -47.4681    2.1888   26.5222 C   0  0  0  0  0  0  0  0  0  0  0  0
  -46.0059    1.8775   26.9275 C   0  0  0  0  0  0  0  0  0  0  0  0
  -45.1757    1.5075   25.8005 N   0  0  0  0  0  0  0  0  0  0  0  0
  -44.6479    2.4287   24.9289 C   0  0  0  0  0  0  0  0  0  0  0  0
  -44.7468    3.6406   25.1013 O   0  0  0  0  0  0  0  0  0  0  0  0
  -43.9821    1.8806   23.7032 C   0  0  0  0  0  0  0  0  0  0  0  0
  -43.9455    2.7543   22.5986 C   0  0  0  0  0  0  0  0  0  0  0  0
  -43.4174    2.3453   21.3782 C   0  0  0  0  0  0  0  0  0  0  0  0
  -42.9138    1.0588   21.2492 C   0  0  0  0  0  0  0  0  0  0  0  0
  -42.9371    0.1835   22.3390 C   0  0  0  0  0  0  0  0  0  0  0  0
  -43.4631    0.5640   23.5903 C   0  0  0  0  0  0  0  0  0  0  0  0
  -43.4133   -0.3218   24.6904 N   0  0  0  0  0  0  0  0  0  0  0  0
  -42.3432    0.0388   25.6531 C   0  0  0  0  0  0  0  0  0  0  0  0
  -41.5430   -1.1821   26.1040 C   0  0  0  0  0  0  0  0  0  0  0  0
  -42.4515   -2.2924   26.6247 C   0  0  0  0  0  0  0  0  0  0  0  0
  -43.6933   -2.4997   25.7548 C   0  0  0  0  0  0  0  0  0  0  0  0
  -43.5974   -1.7568   24.4255 C   0  0  0  0  0  0  0  0  0  0  0  0
  1  2  1  0
  2  3  1  0
  3  4  1  0
  3  5  1  0
  5  6  1  0
  6  7  1  0
  7  8  1  0
  8  9  1  0
  9 10  1  0
 10 11  1  0
 11 12  1  0
 12 13  1  0
 13 14  1  0
 14 15  1  0
 15 16  1  0
 16 17  2  0
 16 18  1  0
 18 19  2  0
 19 20  1  0
 20 21  2  0
 21 22  1  0
 22 23  2  0
 23 24  1  0
 24 25  1  0
 25 26  1  0
 26 27  1  0
 27 28  1  0
 28 29  1  0
  7  2  1  0
 13  8  1  0
 23 18  1  0
 29 24  1  0
M  END
$$$$
