
     RDKit          3D

 28 31  0  0  0  0  0  0  0  0999 V2000
   11.8627    8.7490  -28.1092 N   0  0  0  0  0  0  0  0  0  0  0  0
   12.3248    9.9600  -28.5494 C   0  0  0  0  0  0  0  0  0  0  0  0
   12.0447   11.0007  -27.9725 O   0  0  0  0  0  0  0  0  0  0  0  0
   13.1540    9.9167  -29.7787 C   0  0  0  0  0  0  0  0  0  0  0  0
   12.5687    9.3455  -30.9195 C   0  0  0  0  0  0  0  0  0  0  0  0
   13.3016    9.2272  -32.0991 C   0  0  0  0  0  0  0  0  0  0  0  0
   14.6011    9.7229  -32.1708 C   0  0  0  0  0  0  0  0  0  0  0  0
   15.3821    9.4880  -33.3103 N   0  0  0  0  0  0  0  0  0  0  0  0
   15.1907   10.2502  -31.0134 C   0  0  0  0  0  0  0  0  0  0  0  0
   14.4927   10.3666  -29.7943 C   0  0  0  0  0  0  0  0  0  0  0  0
   15.1205   10.8694  -28.6396 N   0  0  0  0  0  0  0  0  0  0  0  0
   14.6886   12.2504  -28.2998 C   0  0  0  0  0  0  0  0  0  0  0  0
   15.8553   13.2242  -28.2768 C   0  0  0  0  0  0  0  0  0  0  0  0
   15.7880   14.3470  -28.7805 O   0  0  0  0  0  0  0  0  0  0  0  0
   17.0997   12.7891  -27.5370 C   0  0  0  0  0  0  0  0  0  0  0  0
   17.0481   11.3106  -27.1727 C   0  0  0  0  0  0  0  0  0  0  0  0
   16.5266   10.4865  -28.3618 C   0  0  0  0  0  0  0  0  0  0  0  0
   16.6202    8.9639  -28.0416 C   0  0  0  0  0  0  0  0  0  0  0  0
   17.9805    8.4387  -28.1744 N   0  0  0  0  0  0  0  0  0  0  0  0
   18.5903    8.4139  -29.3789 C   0  0  0  0  0  0  0  0  0  0  0  0
   19.8396    8.7270  -29.6147 N   0  0  0  0  0  0  0  0  0  0  0  0
   20.0040    8.5817  -30.9715 C   0  0  0  0  0  0  0  0  0  0  0  0
   21.1368    8.7991  -31.7687 C   0  0  0  0  0  0  0  0  0  0  0  0
   21.0380    8.5814  -33.1495 C   0  0  0  0  0  0  0  0  0  0  0  0
   19.8368    8.1562  -33.7240 C   0  0  0  0  0  0  0  0  0  0  0  0
   18.6961    7.9327  -32.9442 C   0  0  0  0  0  0  0  0  0  0  0  0
   18.8246    8.1582  -31.5728 C   0  0  0  0  0  0  0  0  0  0  0  0
   17.9440    8.0407  -30.5291 N   0  0  0  0  0  0  0  0  0  0  0  0
  1  2  1  0
  2  3  2  0
  2  4  1  0
  4  5  2  0
  5  6  1  0
  6  7  2  0
  7  8  1  0
  7  9  1  0
  9 10  2  0
 10 11  1  0
 11 12  1  0
 12 13  1  0
 13 14  2  0
 13 15  1  0
 15 16  1  0
 16 17  1  0
 17 18  1  0
 18 19  1  0
 19 20  1  0
 20 21  2  0
 21 22  1  0
 22 23  2  0
 23 24  1  0
 24 25  2  0
 25 26  1  0
 26 27  2  0
 27 28  1  0
 10  4  1  0
 17 11  1  0
 28 20  1  0
 27 22  1  0
M  END
$$$$
