
     RDKit          3D

 19 20  0  0  0  0  0  0  0  0999 V2000
  -24.0516  -43.4850   25.5437 N   0  0  0  0  0  0  0  0  0  0  0  0
  -24.6909  -42.1701   25.5321 C   0  0  0  0  0  0  0  0  0  0  0  0
  -25.3408  -41.8231   26.8642 C   0  0  0  0  0  0  0  0  0  0  0  0
  -26.6700  -42.5245   27.0571 C   0  0  0  0  0  0  0  0  0  0  0  0
  -26.8280  -43.3414   27.9676 O   0  0  0  0  0  0  0  0  0  0  0  0
  -27.7833  -42.1953   26.0769 C   0  0  0  0  0  0  0  0  0  0  0  0
  -29.1608  -42.3898   26.6962 C   0  0  0  0  0  0  0  0  0  0  0  0
  -29.4305  -41.3934   27.8102 C   0  0  0  0  0  0  0  0  0  0  0  0
  -28.6970  -40.4201   27.9983 O   0  0  0  0  0  0  0  0  0  0  0  0
  -30.6644  -41.6382   28.6586 C   0  0  0  0  0  0  0  0  0  0  0  0
  -31.9147  -41.3546   27.8970 C   0  0  0  0  0  0  0  0  0  0  0  0
  -32.4542  -40.1074   27.6554 C   0  0  0  0  0  0  0  0  0  0  0  0
  -33.5938  -40.2667   26.9159 N   0  0  0  0  0  0  0  0  0  0  0  0
  -33.8073  -41.5951   26.6526 C   0  0  0  0  0  0  0  0  0  0  0  0
  -34.8325  -42.2137   25.9274 C   0  0  0  0  0  0  0  0  0  0  0  0
  -34.7980  -43.6093   25.8125 C   0  0  0  0  0  0  0  0  0  0  0  0
  -33.7779  -44.3497   26.4014 C   0  0  0  0  0  0  0  0  0  0  0  0
  -32.7633  -43.7151   27.1284 C   0  0  0  0  0  0  0  0  0  0  0  0
  -32.7737  -42.3077   27.2586 C   0  0  0  0  0  0  0  0  0  0  0  0
  1  2  1  0
  2  3  1  0
  3  4  1  0
  4  5  2  0
  4  6  1  0
  6  7  1  0
  7  8  1  0
  8  9  2  0
  8 10  1  0
 10 11  1  0
 11 12  2  0
 12 13  1  0
 13 14  1  0
 14 15  2  0
 15 16  1  0
 16 17  2  0
 17 18  1  0
 18 19  2  0
 19 11  1  0
 19 14  1  0
M  END
$$$$
