
     RDKit          3D

 16 17  0  0  0  0  0  0  0  0999 V2000
    7.2756   -3.4323  -13.0009 N   0  0  0  0  0  0  0  0  0  0  0  0
    6.3713   -3.5642  -11.8587 C   0  0  0  0  0  0  0  0  0  0  0  0
    4.9586   -3.8827  -12.3316 C   0  0  0  0  0  0  0  0  0  0  0  0
    3.9967   -4.0370  -11.1675 C   0  0  0  0  0  0  0  0  0  0  0  0
    4.3223   -3.7763  -10.0099 O   0  0  0  0  0  0  0  0  0  0  0  0
    2.6005   -4.5065  -11.5293 C   0  0  0  0  0  0  0  0  0  0  0  0
    1.7071   -4.6522  -10.3013 C   0  0  0  0  0  0  0  0  0  0  0  0
    0.3323   -5.1155  -10.6676 C   0  0  0  0  0  0  0  0  0  0  0  0
   -0.1168   -6.4218  -10.6721 C   0  0  0  0  0  0  0  0  0  0  0  0
   -1.4265   -6.4254  -11.0694 N   0  0  0  0  0  0  0  0  0  0  0  0
   -1.8481   -5.1434  -11.3324 C   0  0  0  0  0  0  0  0  0  0  0  0
   -3.0948   -4.6746  -11.7640 C   0  0  0  0  0  0  0  0  0  0  0  0
   -3.2408   -3.2966  -11.9477 C   0  0  0  0  0  0  0  0  0  0  0  0
   -2.1816   -2.4250  -11.7075 C   0  0  0  0  0  0  0  0  0  0  0  0
   -0.9418   -2.9110  -11.2763 C   0  0  0  0  0  0  0  0  0  0  0  0
   -0.7670   -4.2972  -11.0845 C   0  0  0  0  0  0  0  0  0  0  0  0
  1  2  1  0
  2  3  1  0
  3  4  1  0
  4  5  2  0
  4  6  1  0
  6  7  1  0
  7  8  1  0
  8  9  2  0
  9 10  1  0
 10 11  1  0
 11 12  2  0
 12 13  1  0
 13 14  2  0
 14 15  1  0
 15 16  2  0
 16  8  1  0
 16 11  1  0
M  END
$$$$
