
     RDKit          3D

 26 28  0  0  0  0  0  0  0  0999 V2000
   11.4935  -10.2663   52.9858 C   0  0  0  0  0  0  0  0  0  0  0  0
   12.8371  -10.0521   52.4724 N   0  0  0  0  0  0  0  0  0  0  0  0
   13.8855  -10.5489   53.3768 C   0  0  0  0  0  0  0  0  0  0  0  0
   14.0091  -12.0585   53.4257 C   0  0  0  0  0  0  0  0  0  0  0  0
   13.2931  -12.7687   54.4080 C   0  0  0  0  0  0  0  0  0  0  0  0
   13.3689  -14.1602   54.4961 C   0  0  0  0  0  0  0  0  0  0  0  0
   14.1557  -14.8662   53.5942 C   0  0  0  0  0  0  0  0  0  0  0  0
   14.3394  -16.2220   53.5781 O   0  0  0  0  0  0  0  0  0  0  0  0
   13.4941  -16.9907   54.4261 C   0  0  0  0  0  0  0  0  0  0  0  0
   14.8707  -14.1677   52.6162 C   0  0  0  0  0  0  0  0  0  0  0  0
   14.8330  -12.7661   52.5250 C   0  0  0  0  0  0  0  0  0  0  0  0
   15.5630  -12.0843   51.5551 N   0  0  0  0  0  0  0  0  0  0  0  0
   14.8749  -12.0288   50.2540 C   0  0  0  0  0  0  0  0  0  0  0  0
   15.8206  -12.3025   49.0838 C   0  0  0  0  0  0  0  0  0  0  0  0
   16.7611  -13.4583   49.3968 C   0  0  0  0  0  0  0  0  0  0  0  0
   17.5745  -13.2278   50.6805 C   0  0  0  0  0  0  0  0  0  0  0  0
   17.0408  -12.0600   51.5499 C   0  0  0  0  0  0  0  0  0  0  0  0
   17.8368  -11.7220   52.7510 N   0  0  0  0  0  0  0  0  0  0  0  0
   19.1796  -11.2191   52.4422 C   0  0  0  0  0  0  0  0  0  0  0  0
   19.8213  -10.5495   53.6582 C   0  0  0  0  0  0  0  0  0  0  0  0
   19.8484  -11.4757   54.8645 C   0  0  0  0  0  0  0  0  0  0  0  0
   18.4537  -12.0259   55.1431 C   0  0  0  0  0  0  0  0  0  0  0  0
   17.8040  -12.6518   53.8945 C   0  0  0  0  0  0  0  0  0  0  0  0
   18.4495  -14.0281   53.6361 C   0  0  0  0  0  0  0  0  0  0  0  0
   17.8056  -15.0914   54.2121 N   0  0  0  0  0  0  0  0  0  0  0  0
   19.4938  -14.2211   53.0195 O   0  0  0  0  0  0  0  0  0  0  0  0
  1  2  1  0
  2  3  1  0
  3  4  1  0
  4  5  2  0
  5  6  1  0
  6  7  2  0
  7  8  1  0
  8  9  1  0
  7 10  1  0
 10 11  2  0
 11 12  1  0
 12 13  1  0
 13 14  1  0
 14 15  1  0
 15 16  1  0
 16 17  1  0
 17 18  1  0
 18 19  1  0
 19 20  1  0
 20 21  1  0
 21 22  1  0
 22 23  1  0
 23 24  1  0
 24 25  1  0
 24 26  2  0
 11  4  1  0
 17 12  1  0
 23 18  1  0
M  END
$$$$
