
     RDKit          3D

 19 20  0  0  0  0  0  0  0  0999 V2000
   24.5186   14.8511    4.1141 N   0  0  0  0  0  0  0  0  0  0  0  0
   25.0256   14.3334    2.8486 C   0  0  0  0  0  0  0  0  0  0  0  0
   25.0556   15.4123    1.7765 C   0  0  0  0  0  0  0  0  0  0  0  0
   23.6636   15.7928    1.3162 C   0  0  0  0  0  0  0  0  0  0  0  0
   22.9068   14.9726    0.7925 O   0  0  0  0  0  0  0  0  0  0  0  0
   23.2349   17.2198    1.5061 C   0  0  0  0  0  0  0  0  0  0  0  0
   22.7992   17.5269    2.9118 C   0  0  0  0  0  0  0  0  0  0  0  0
   23.5927   18.0030    3.7268 O   0  0  0  0  0  0  0  0  0  0  0  0
   21.3690   17.2110    3.2885 C   0  0  0  0  0  0  0  0  0  0  0  0
   21.2769   15.9052    4.0636 C   0  0  0  0  0  0  0  0  0  0  0  0
   19.8567   15.5187    4.3283 C   0  0  0  0  0  0  0  0  0  0  0  0
   19.1100   15.8386    5.4450 C   0  0  0  0  0  0  0  0  0  0  0  0
   17.8598   15.3023    5.2934 N   0  0  0  0  0  0  0  0  0  0  0  0
   17.7680   14.6373    4.0932 C   0  0  0  0  0  0  0  0  0  0  0  0
   16.6911   13.9483    3.5223 C   0  0  0  0  0  0  0  0  0  0  0  0
   16.8903   13.3580    2.2707 C   0  0  0  0  0  0  0  0  0  0  0  0
   18.1175   13.4541    1.6190 C   0  0  0  0  0  0  0  0  0  0  0  0
   19.1837   14.1469    2.2040 C   0  0  0  0  0  0  0  0  0  0  0  0
   19.0085   14.7519    3.4658 C   0  0  0  0  0  0  0  0  0  0  0  0
  1  2  1  0
  2  3  1  0
  3  4  1  0
  4  5  2  0
  4  6  1  0
  6  7  1  0
  7  8  2  0
  7  9  1  0
  9 10  1  0
 10 11  1  0
 11 12  2  0
 12 13  1  0
 13 14  1  0
 14 15  2  0
 15 16  1  0
 16 17  2  0
 17 18  1  0
 18 19  2  0
 19 11  1  0
 19 14  1  0
M  END
$$$$
