
     RDKit          3D

 28 31  0  0  0  0  0  0  0  0999 V2000
   -0.8951    2.7291    4.2547 N   0  0  0  0  0  0  0  0  0  0  0  0
   -1.9376    2.1288    4.9088 C   0  0  0  0  0  0  0  0  0  0  0  0
   -2.3460    2.5444    5.9844 O   0  0  0  0  0  0  0  0  0  0  0  0
   -2.5269    0.9619    4.2177 C   0  0  0  0  0  0  0  0  0  0  0  0
   -3.0223    1.1661    2.9250 C   0  0  0  0  0  0  0  0  0  0  0  0
   -3.5630    0.0848    2.2612 C   0  0  0  0  0  0  0  0  0  0  0  0
   -3.6325   -1.1510    2.7910 N   0  0  0  0  0  0  0  0  0  0  0  0
   -3.1471   -1.3077    4.0482 C   0  0  0  0  0  0  0  0  0  0  0  0
   -2.5679   -0.3025    4.8262 C   0  0  0  0  0  0  0  0  0  0  0  0
   -2.0687   -0.5266    6.1128 N   0  0  0  0  0  0  0  0  0  0  0  0
   -3.0218   -0.2018    7.1966 C   0  0  0  0  0  0  0  0  0  0  0  0
   -3.6806   -1.4586    7.7489 C   0  0  0  0  0  0  0  0  0  0  0  0
   -4.8471   -1.4728    8.1466 O   0  0  0  0  0  0  0  0  0  0  0  0
   -2.8299   -2.7076    7.8111 C   0  0  0  0  0  0  0  0  0  0  0  0
   -1.3590   -2.3499    7.6565 C   0  0  0  0  0  0  0  0  0  0  0  0
   -1.1143   -1.6414    6.3130 C   0  0  0  0  0  0  0  0  0  0  0  0
    0.3421   -1.1041    6.2049 C   0  0  0  0  0  0  0  0  0  0  0  0
    0.6467   -0.0957    7.2270 N   0  0  0  0  0  0  0  0  0  0  0  0
    2.0271    0.3759    7.1702 C   0  0  0  0  0  0  0  0  0  0  0  0
    2.1652    1.5319    6.2308 C   0  0  0  0  0  0  0  0  0  0  0  0
    1.9574    2.8635    6.5475 C   0  0  0  0  0  0  0  0  0  0  0  0
    2.2580    3.6248    5.4514 N   0  0  0  0  0  0  0  0  0  0  0  0
    2.6200    2.8165    4.3982 C   0  0  0  0  0  0  0  0  0  0  0  0
    2.9861    3.1547    3.0894 C   0  0  0  0  0  0  0  0  0  0  0  0
    3.3309    2.1135    2.2230 C   0  0  0  0  0  0  0  0  0  0  0  0
    3.3159    0.7901    2.6538 C   0  0  0  0  0  0  0  0  0  0  0  0
    2.9508    0.4701    3.9669 C   0  0  0  0  0  0  0  0  0  0  0  0
    2.5853    1.4998    4.8599 C   0  0  0  0  0  0  0  0  0  0  0  0
  1  2  1  0
  2  3  2  0
  2  4  1  0
  4  5  2  0
  5  6  1  0
  6  7  2  0
  7  8  1  0
  8  9  2  0
  9 10  1  0
 10 11  1  0
 11 12  1  0
 12 13  2  0
 12 14  1  0
 14 15  1  0
 15 16  1  0
 16 17  1  0
 17 18  1  0
 18 19  1  0
 19 20  1  0
 20 21  2  0
 21 22  1  0
 22 23  1  0
 23 24  2  0
 24 25  1  0
 25 26  2  0
 26 27  1  0
 27 28  2  0
  9  4  1  0
 16 10  1  0
 28 20  1  0
 28 23  1  0
M  END
$$$$
