
     RDKit          3D

 18 19  0  0  0  0  0  0  0  0999 V2000
   21.2749  -21.5888   -1.9817 C   0  0  0  0  0  0  0  0  0  0  0  0
   20.5533  -21.1115   -0.8113 N   0  0  0  0  0  0  0  0  0  0  0  0
   19.3673  -21.9150   -0.5069 C   0  0  0  0  0  0  0  0  0  0  0  0
   18.1891  -21.6285   -1.4447 C   0  0  0  0  0  0  0  0  0  0  0  0
   16.9531  -22.4862   -1.1460 C   0  0  0  0  0  0  0  0  0  0  0  0
   16.2851  -22.1476    0.1894 C   0  0  0  0  0  0  0  0  0  0  0  0
   15.0480  -23.0029    0.4837 C   0  0  0  0  0  0  0  0  0  0  0  0
   13.8773  -22.7302   -0.4633 C   0  0  0  0  0  0  0  0  0  0  0  0
   12.6346  -23.5197   -0.0459 C   0  0  0  0  0  0  0  0  0  0  0  0
   11.4879  -23.2627   -0.9807 C   0  0  0  0  0  0  0  0  0  0  0  0
   11.3503  -24.0787   -2.0713 N   0  0  0  0  0  0  0  0  0  0  0  0
   10.3314  -23.8475   -2.9296 C   0  0  0  0  0  0  0  0  0  0  0  0
    9.3924  -22.8826   -2.8670 N   0  0  0  0  0  0  0  0  0  0  0  0
    9.5804  -22.1107   -1.7872 C   0  0  0  0  0  0  0  0  0  0  0  0
    8.8280  -21.0379   -1.4078 N   0  0  0  0  0  0  0  0  0  0  0  0
    9.3717  -20.5410   -0.2549 C   0  0  0  0  0  0  0  0  0  0  0  0
   10.4257  -21.2308    0.1282 N   0  0  0  0  0  0  0  0  0  0  0  0
   10.5674  -22.2192   -0.8216 C   0  0  0  0  0  0  0  0  0  0  0  0
  1  2  1  0
  2  3  1  0
  3  4  1  0
  4  5  1  0
  5  6  1  0
  6  7  1  0
  7  8  1  0
  8  9  1  0
  9 10  1  0
 10 11  2  0
 11 12  1  0
 12 13  2  0
 13 14  1  0
 14 15  1  0
 15 16  1  0
 16 17  2  0
 17 18  1  0
 18 10  1  0
 18 14  2  0
M  END
$$$$
