
     RDKit          3D

 29 32  0  0  0  0  0  0  0  0999 V2000
  -25.8585   -0.8008   54.7696 N   0  0  0  0  0  0  0  0  0  0  0  0
  -25.3012   -1.8824   55.6202 C   0  0  0  0  0  0  0  0  0  0  0  0
  -24.8676   -3.4618   54.8519 S   0  0  0  0  0  0  0  0  0  0  0  0
  -26.0056   -3.8250   54.0205 O   0  0  0  0  0  0  0  0  0  0  0  0
  -24.4160   -4.3183   55.9360 O   0  0  0  0  0  0  0  0  0  0  0  0
  -23.4814   -3.1797   53.7700 C   0  0  0  0  0  0  0  0  0  0  0  0
  -22.9611   -1.8922   53.6030 C   0  0  0  0  0  0  0  0  0  0  0  0
  -21.8741   -1.7257   52.7646 C   0  0  0  0  0  0  0  0  0  0  0  0
  -21.2796   -2.7359   52.1024 N   0  0  0  0  0  0  0  0  0  0  0  0
  -21.8296   -3.9671   52.2618 C   0  0  0  0  0  0  0  0  0  0  0  0
  -22.9114   -4.2718   53.0940 C   0  0  0  0  0  0  0  0  0  0  0  0
  -23.4141   -5.5757   53.2336 N   0  0  0  0  0  0  0  0  0  0  0  0
  -24.2626   -5.9320   52.0777 C   0  0  0  0  0  0  0  0  0  0  0  0
  -25.0981   -7.1624   52.4174 C   0  0  0  0  0  0  0  0  0  0  0  0
  -24.2081   -8.3235   52.8448 C   0  0  0  0  0  0  0  0  0  0  0  0
  -23.2860   -7.9050   53.9872 C   0  0  0  0  0  0  0  0  0  0  0  0
  -22.4549   -6.6543   53.6266 C   0  0  0  0  0  0  0  0  0  0  0  0
  -21.5769   -6.2837   54.8643 C   0  0  0  0  0  0  0  0  0  0  0  0
  -20.3968   -5.4869   54.4893 N   0  0  0  0  0  0  0  0  0  0  0  0
  -19.8432   -4.7717   55.6410 C   0  0  0  0  0  0  0  0  0  0  0  0
  -18.7285   -3.8758   55.2068 C   0  0  0  0  0  0  0  0  0  0  0  0
  -17.5767   -3.6777   55.8184 N   0  0  0  0  0  0  0  0  0  0  0  0
  -16.9011   -2.7656   55.0428 C   0  0  0  0  0  0  0  0  0  0  0  0
  -15.6305   -2.2000   55.2229 C   0  0  0  0  0  0  0  0  0  0  0  0
  -15.1619   -1.2833   54.2722 C   0  0  0  0  0  0  0  0  0  0  0  0
  -15.9417   -0.9382   53.1649 C   0  0  0  0  0  0  0  0  0  0  0  0
  -17.2122   -1.4920   52.9688 C   0  0  0  0  0  0  0  0  0  0  0  0
  -17.6535   -2.3996   53.9332 C   0  0  0  0  0  0  0  0  0  0  0  0
  -18.8117   -3.1187   54.0608 N   0  0  0  0  0  0  0  0  0  0  0  0
  1  2  1  0
  2  3  1  0
  3  4  2  0
  3  5  2  0
  3  6  1  0
  6  7  2  0
  7  8  1  0
  8  9  2  0
  9 10  1  0
 10 11  2  0
 11 12  1  0
 12 13  1  0
 13 14  1  0
 14 15  1  0
 15 16  1  0
 16 17  1  0
 17 18  1  0
 18 19  1  0
 19 20  1  0
 20 21  1  0
 21 22  2  0
 22 23  1  0
 23 24  2  0
 24 25  1  0
 25 26  2  0
 26 27  1  0
 27 28  2  0
 28 29  1  0
 11  6  1  0
 17 12  1  0
 29 21  1  0
 28 23  1  0
M  END
$$$$
