
     RDKit          3D

 16 17  0  0  0  0  0  0  0  0999 V2000
   -3.4007   27.3740   17.7937 N   0  0  0  0  0  0  0  0  0  0  0  0
   -4.6488   27.2823   18.5551 C   0  0  0  0  0  0  0  0  0  0  0  0
   -4.6699   25.9766   19.3401 C   0  0  0  0  0  0  0  0  0  0  0  0
   -4.1946   25.9137   20.4768 O   0  0  0  0  0  0  0  0  0  0  0  0
   -5.2075   24.7560   18.6162 C   0  0  0  0  0  0  0  0  0  0  0  0
   -5.6790   23.6429   19.5538 C   0  0  0  0  0  0  0  0  0  0  0  0
   -6.7898   24.0439   20.5337 C   0  0  0  0  0  0  0  0  0  0  0  0
   -7.9788   24.6685   19.8735 C   0  0  0  0  0  0  0  0  0  0  0  0
   -8.9097   24.0253   19.0810 C   0  0  0  0  0  0  0  0  0  0  0  0
   -9.8228   24.9499   18.6520 N   0  0  0  0  0  0  0  0  0  0  0  0
   -9.5102   26.1938   19.1476 C   0  0  0  0  0  0  0  0  0  0  0  0
  -10.1526   27.4246   18.9661 C   0  0  0  0  0  0  0  0  0  0  0  0
   -9.6099   28.5405   19.6098 C   0  0  0  0  0  0  0  0  0  0  0  0
   -8.4731   28.4268   20.4058 C   0  0  0  0  0  0  0  0  0  0  0  0
   -7.8437   27.1885   20.5763 C   0  0  0  0  0  0  0  0  0  0  0  0
   -8.3662   26.0472   19.9322 C   0  0  0  0  0  0  0  0  0  0  0  0
  1  2  1  0
  2  3  1  0
  3  4  2  0
  3  5  1  0
  5  6  1  0
  6  7  1  0
  7  8  1  0
  8  9  2  0
  9 10  1  0
 10 11  1  0
 11 12  2  0
 12 13  1  0
 13 14  2  0
 14 15  1  0
 15 16  2  0
 16  8  1  0
 16 11  1  0
M  END
$$$$
