
     RDKit          3D

 26 29  0  0  0  0  0  0  0  0999 V2000
    5.7356   10.8680   -4.2789 N   0  0  0  0  0  0  0  0  0  0  0  0
    5.5548   10.8507   -2.8305 C   0  0  0  0  0  0  0  0  0  0  0  0
    6.5184   11.7756   -2.1296 C   0  0  0  0  0  0  0  0  0  0  0  0
    6.1799   13.1448   -2.1014 C   0  0  0  0  0  0  0  0  0  0  0  0
    6.9953   14.0446   -1.4357 C   0  0  0  0  0  0  0  0  0  0  0  0
    8.1181   13.6885   -0.7924 N   0  0  0  0  0  0  0  0  0  0  0  0
    8.4370   12.3740   -0.8428 C   0  0  0  0  0  0  0  0  0  0  0  0
    7.7053   11.3664   -1.4949 C   0  0  0  0  0  0  0  0  0  0  0  0
    8.1954   10.0561   -1.4277 N   0  0  0  0  0  0  0  0  0  0  0  0
    7.6081    9.2365   -0.3509 C   0  0  0  0  0  0  0  0  0  0  0  0
    6.8403    8.0347   -0.8738 C   0  0  0  0  0  0  0  0  0  0  0  0
    5.7937    7.6529   -0.3454 O   0  0  0  0  0  0  0  0  0  0  0  0
    7.4286    7.2828   -2.0443 C   0  0  0  0  0  0  0  0  0  0  0  0
    8.7503    7.8914   -2.4877 C   0  0  0  0  0  0  0  0  0  0  0  0
    8.5962    9.4061   -2.7062 C   0  0  0  0  0  0  0  0  0  0  0  0
    9.9224   10.0059   -3.2480 C   0  0  0  0  0  0  0  0  0  0  0  0
   10.9648    9.9620   -2.2182 N   0  0  0  0  0  0  0  0  0  0  0  0
   12.2158   10.2934   -2.5895 C   0  0  0  0  0  0  0  0  0  0  0  0
   12.7270   10.3556   -3.7955 N   0  0  0  0  0  0  0  0  0  0  0  0
   14.0359   10.7345   -3.6219 C   0  0  0  0  0  0  0  0  0  0  0  0
   15.0410   10.9566   -4.5743 C   0  0  0  0  0  0  0  0  0  0  0  0
   16.3133   11.3410   -4.1310 C   0  0  0  0  0  0  0  0  0  0  0  0
   16.5790   11.5002   -2.7682 C   0  0  0  0  0  0  0  0  0  0  0  0
   15.5888   11.2825   -1.8025 C   0  0  0  0  0  0  0  0  0  0  0  0
   14.3309   10.9015   -2.2736 C   0  0  0  0  0  0  0  0  0  0  0  0
   13.1513   10.6090   -1.6401 N   0  0  0  0  0  0  0  0  0  0  0  0
  1  2  1  0
  2  3  1  0
  3  4  2  0
  4  5  1  0
  5  6  2  0
  6  7  1  0
  7  8  2  0
  8  9  1  0
  9 10  1  0
 10 11  1  0
 11 12  2  0
 11 13  1  0
 13 14  1  0
 14 15  1  0
 15 16  1  0
 16 17  1  0
 17 18  1  0
 18 19  2  0
 19 20  1  0
 20 21  2  0
 21 22  1  0
 22 23  2  0
 23 24  1  0
 24 25  2  0
 25 26  1  0
  8  3  1  0
 15  9  1  0
 26 18  1  0
 25 20  1  0
M  END
$$$$
