
     RDKit          3D

 26 28  0  0  0  0  0  0  0  0999 V2000
   22.1365    0.6853   -4.8639 N   0  0  0  0  0  0  0  0  0  0  0  0
   22.5900   -0.0826   -3.7037 C   0  0  0  0  0  0  0  0  0  0  0  0
   22.4922    0.7329   -2.4209 C   0  0  0  0  0  0  0  0  0  0  0  0
   21.0533    0.9383   -1.9953 C   0  0  0  0  0  0  0  0  0  0  0  0
   20.2838   -0.0181   -1.8841 O   0  0  0  0  0  0  0  0  0  0  0  0
   20.6367    2.3534   -1.6302 C   0  0  0  0  0  0  0  0  0  0  0  0
   19.1646    2.6361   -1.9524 C   0  0  0  0  0  0  0  0  0  0  0  0
   18.7875    2.5675   -3.4239 C   0  0  0  0  0  0  0  0  0  0  0  0
   19.6368    3.1844   -4.3640 C   0  0  0  0  0  0  0  0  0  0  0  0
   19.3973    3.0238   -5.7172 C   0  0  0  0  0  0  0  0  0  0  0  0
   18.3767    2.3035   -6.2027 N   0  0  0  0  0  0  0  0  0  0  0  0
   17.5341    1.7728   -5.2826 C   0  0  0  0  0  0  0  0  0  0  0  0
   17.6399    1.8863   -3.8870 C   0  0  0  0  0  0  0  0  0  0  0  0
   16.6582    1.3680   -3.0604 N   0  0  0  0  0  0  0  0  0  0  0  0
   16.0062    2.1924   -2.0349 C   0  0  0  0  0  0  0  0  0  0  0  0
   16.0586    1.5107   -0.6726 C   0  0  0  0  0  0  0  0  0  0  0  0
   16.1055    2.1648    0.3730 O   0  0  0  0  0  0  0  0  0  0  0  0
   15.9141    0.0030   -0.6392 C   0  0  0  0  0  0  0  0  0  0  0  0
   16.6435   -0.6449   -1.8137 C   0  0  0  0  0  0  0  0  0  0  0  0
   16.1957   -0.0260   -3.1689 C   0  0  0  0  0  0  0  0  0  0  0  0
   14.7509   -0.2831   -3.4078 N   0  0  0  0  0  0  0  0  0  0  0  0
   14.2711    0.4440   -4.5965 C   0  0  0  0  0  0  0  0  0  0  0  0
   12.7615    0.2839   -4.7842 C   0  0  0  0  0  0  0  0  0  0  0  0
   12.3773   -1.1834   -4.9015 C   0  0  0  0  0  0  0  0  0  0  0  0
   12.9456   -1.9670   -3.7279 C   0  0  0  0  0  0  0  0  0  0  0  0
   14.4474   -1.7197   -3.5554 C   0  0  0  0  0  0  0  0  0  0  0  0
  1  2  1  0
  2  3  1  0
  3  4  1  0
  4  5  2  0
  4  6  1  0
  6  7  1  0
  7  8  1  0
  8  9  2  0
  9 10  1  0
 10 11  2  0
 11 12  1  0
 12 13  2  0
 13 14  1  0
 14 15  1  0
 15 16  1  0
 16 17  2  0
 16 18  1  0
 18 19  1  0
 19 20  1  0
 20 21  1  0
 21 22  1  0
 22 23  1  0
 23 24  1  0
 24 25  1  0
 25 26  1  0
 13  8  1  0
 20 14  1  0
 26 21  1  0
M  END
$$$$
