
     RDKit          3D

 26 28  0  0  0  0  0  0  0  0999 V2000
  -22.8734   56.2046  -32.8250 C   0  0  0  0  0  0  0  0  0  0  0  0
  -22.3264   57.2087  -33.6998 N   0  0  0  0  0  0  0  0  0  0  0  0
  -21.3558   58.0813  -33.2627 C   0  0  0  0  0  0  0  0  0  0  0  0
  -20.8361   58.0160  -32.1590 O   0  0  0  0  0  0  0  0  0  0  0  0
  -20.9584   59.1096  -34.3006 C   0  0  0  0  0  0  0  0  0  0  0  0
  -21.6576   60.4364  -34.1138 C   0  0  0  0  0  0  0  0  0  0  0  0
  -21.0502   61.3778  -33.2645 C   0  0  0  0  0  0  0  0  0  0  0  0
  -21.6323   62.6240  -33.0324 C   0  0  0  0  0  0  0  0  0  0  0  0
  -22.8331   62.9508  -33.6492 C   0  0  0  0  0  0  0  0  0  0  0  0
  -23.5053   64.1350  -33.5228 O   0  0  0  0  0  0  0  0  0  0  0  0
  -22.8876   65.1377  -32.7254 C   0  0  0  0  0  0  0  0  0  0  0  0
  -23.4523   62.0142  -34.4825 C   0  0  0  0  0  0  0  0  0  0  0  0
  -22.8978   60.7424  -34.7191 C   0  0  0  0  0  0  0  0  0  0  0  0
  -23.5171   59.7965  -35.5852 N   0  0  0  0  0  0  0  0  0  0  0  0
  -23.0329   60.0613  -36.9677 C   0  0  0  0  0  0  0  0  0  0  0  0
  -23.5487   59.0315  -37.9660 C   0  0  0  0  0  0  0  0  0  0  0  0
  -22.9955   58.8766  -39.0708 O   0  0  0  0  0  0  0  0  0  0  0  0
  -24.8761   58.3498  -37.6892 C   0  0  0  0  0  0  0  0  0  0  0  0
  -25.3458   58.3865  -36.2368 C   0  0  0  0  0  0  0  0  0  0  0  0
  -25.0059   59.7290  -35.5458 C   0  0  0  0  0  0  0  0  0  0  0  0
  -25.7510   59.8999  -34.2979 N   0  0  0  0  0  0  0  0  0  0  0  0
  -27.1487   60.2764  -34.4455 C   0  0  0  0  0  0  0  0  0  0  0  0
  -27.6859   60.7815  -33.1076 C   0  0  0  0  0  0  0  0  0  0  0  0
  -27.5155   59.7653  -31.9782 C   0  0  0  0  0  0  0  0  0  0  0  0
  -26.6802   58.5617  -32.3983 C   0  0  0  0  0  0  0  0  0  0  0  0
  -25.4519   58.9654  -33.2172 C   0  0  0  0  0  0  0  0  0  0  0  0
  1  2  1  0
  2  3  1  0
  3  4  2  0
  3  5  1  0
  5  6  1  0
  6  7  2  0
  7  8  1  0
  8  9  2  0
  9 10  1  0
 10 11  1  0
  9 12  1  0
 12 13  2  0
 13 14  1  0
 14 15  1  0
 15 16  1  0
 16 17  2  0
 16 18  1  0
 18 19  1  0
 19 20  1  0
 20 21  1  0
 21 22  1  0
 22 23  1  0
 23 24  1  0
 24 25  1  0
 25 26  1  0
 13  6  1  0
 20 14  1  0
 26 21  1  0
M  END
$$$$
