
     RDKit          3D

 23 25  0  0  0  0  0  0  0  0999 V2000
    5.8892  -44.6954   19.3882 N   0  0  0  0  0  0  0  0  0  0  0  0
    7.0274  -43.9090   18.9208 C   0  0  0  0  0  0  0  0  0  0  0  0
    8.3357  -44.6506   19.1929 C   0  0  0  0  0  0  0  0  0  0  0  0
    9.5845  -43.8239   18.8628 C   0  0  0  0  0  0  0  0  0  0  0  0
    9.8003  -43.5589   17.3883 C   0  0  0  0  0  0  0  0  0  0  0  0
    9.2371  -42.4018   16.8251 C   0  0  0  0  0  0  0  0  0  0  0  0
    9.4260  -42.1397   15.4787 C   0  0  0  0  0  0  0  0  0  0  0  0
   10.1297  -42.9376   14.6564 N   0  0  0  0  0  0  0  0  0  0  0  0
   10.6808  -44.0390   15.2199 C   0  0  0  0  0  0  0  0  0  0  0  0
   10.5685  -44.4104   16.5686 C   0  0  0  0  0  0  0  0  0  0  0  0
   11.1637  -45.5760   17.0963 N   0  0  0  0  0  0  0  0  0  0  0  0
   10.3268  -46.7538   16.8645 C   0  0  0  0  0  0  0  0  0  0  0  0
   10.2548  -47.4903   18.0763 O   0  0  0  0  0  0  0  0  0  0  0  0
   10.8819  -47.6414   15.7535 C   0  0  0  0  0  0  0  0  0  0  0  0
   12.2955  -48.1287   16.0571 C   0  0  0  0  0  0  0  0  0  0  0  0
   13.0424  -47.2084   17.0215 C   0  0  0  0  0  0  0  0  0  0  0  0
   12.6251  -45.7212   16.8617 C   0  0  0  0  0  0  0  0  0  0  0  0
   13.6015  -44.9156   17.6274 N   0  0  0  0  0  0  0  0  0  0  0  0
   13.6079  -43.5031   17.2623 C   0  0  0  0  0  0  0  0  0  0  0  0
   14.8537  -42.8177   17.8359 C   0  0  0  0  0  0  0  0  0  0  0  0
   15.1572  -43.2283   19.2782 C   0  0  0  0  0  0  0  0  0  0  0  0
   13.9641  -43.9230   19.9181 C   0  0  0  0  0  0  0  0  0  0  0  0
   13.5061  -45.1245   19.0799 C   0  0  0  0  0  0  0  0  0  0  0  0
  1  2  1  0
  2  3  1  0
  3  4  1  0
  4  5  1  0
  5  6  2  0
  6  7  1  0
  7  8  2  0
  8  9  1  0
  9 10  2  0
 10 11  1  0
 11 12  1  0
 12 13  1  0
 12 14  1  0
 14 15  1  0
 15 16  1  0
 16 17  1  0
 17 18  1  0
 18 19  1  0
 19 20  1  0
 20 21  1  0
 21 22  1  0
 22 23  1  0
 10  5  1  0
 17 11  1  0
 23 18  1  0
M  END
$$$$
