
     RDKit          3D

 26 28  0  0  0  0  0  0  0  0999 V2000
    8.2320   21.8858  -80.3532 N   0  0  0  0  0  0  0  0  0  0  0  0
    8.6855   21.1179  -79.1931 C   0  0  0  0  0  0  0  0  0  0  0  0
    8.5877   21.9334  -77.9102 C   0  0  0  0  0  0  0  0  0  0  0  0
    7.1488   22.1388  -77.4846 C   0  0  0  0  0  0  0  0  0  0  0  0
    6.3794   21.1824  -77.3734 O   0  0  0  0  0  0  0  0  0  0  0  0
    6.7322   23.5539  -77.1196 C   0  0  0  0  0  0  0  0  0  0  0  0
    5.2601   23.8366  -77.4417 C   0  0  0  0  0  0  0  0  0  0  0  0
    4.8830   23.7680  -78.9132 C   0  0  0  0  0  0  0  0  0  0  0  0
    5.7323   24.3849  -79.8534 C   0  0  0  0  0  0  0  0  0  0  0  0
    5.4928   24.2243  -81.2066 C   0  0  0  0  0  0  0  0  0  0  0  0
    4.4722   23.5040  -81.6920 N   0  0  0  0  0  0  0  0  0  0  0  0
    3.6296   22.9733  -80.7719 C   0  0  0  0  0  0  0  0  0  0  0  0
    3.7354   23.0868  -79.3764 C   0  0  0  0  0  0  0  0  0  0  0  0
    2.7537   22.5685  -78.5497 N   0  0  0  0  0  0  0  0  0  0  0  0
    2.1017   23.3929  -77.5243 C   0  0  0  0  0  0  0  0  0  0  0  0
    2.1541   22.7112  -76.1619 C   0  0  0  0  0  0  0  0  0  0  0  0
    2.2010   23.3653  -75.1163 O   0  0  0  0  0  0  0  0  0  0  0  0
    2.0096   21.2035  -76.1285 C   0  0  0  0  0  0  0  0  0  0  0  0
    2.7390   20.5556  -77.3031 C   0  0  0  0  0  0  0  0  0  0  0  0
    2.2912   21.1745  -78.6583 C   0  0  0  0  0  0  0  0  0  0  0  0
    0.8464   20.9174  -78.8971 N   0  0  0  0  0  0  0  0  0  0  0  0
    0.3666   21.6445  -80.0859 C   0  0  0  0  0  0  0  0  0  0  0  0
   -1.1430   21.4844  -80.2735 C   0  0  0  0  0  0  0  0  0  0  0  0
   -1.5272   20.0171  -80.3908 C   0  0  0  0  0  0  0  0  0  0  0  0
   -0.9589   19.2335  -79.2173 C   0  0  0  0  0  0  0  0  0  0  0  0
    0.5429   19.4808  -79.0448 C   0  0  0  0  0  0  0  0  0  0  0  0
  1  2  1  0
  2  3  1  0
  3  4  1  0
  4  5  2  0
  4  6  1  0
  6  7  1  0
  7  8  1  0
  8  9  2  0
  9 10  1  0
 10 11  2  0
 11 12  1  0
 12 13  2  0
 13 14  1  0
 14 15  1  0
 15 16  1  0
 16 17  2  0
 16 18  1  0
 18 19  1  0
 19 20  1  0
 20 21  1  0
 21 22  1  0
 22 23  1  0
 23 24  1  0
 24 25  1  0
 25 26  1  0
 13  8  1  0
 20 14  1  0
 26 21  1  0
M  END
$$$$
