
     RDKit          3D

 19 20  0  0  0  0  0  0  0  0999 V2000
   -3.9590   -2.5522   10.3944 N   0  0  0  0  0  0  0  0  0  0  0  0
   -3.4519   -3.0698    9.1289 C   0  0  0  0  0  0  0  0  0  0  0  0
   -3.4219   -1.9909    8.0567 C   0  0  0  0  0  0  0  0  0  0  0  0
   -4.8139   -1.6104    7.5965 C   0  0  0  0  0  0  0  0  0  0  0  0
   -5.5707   -2.4306    7.0728 O   0  0  0  0  0  0  0  0  0  0  0  0
   -5.2426   -0.1834    7.7863 C   0  0  0  0  0  0  0  0  0  0  0  0
   -5.6783    0.1237    9.1921 C   0  0  0  0  0  0  0  0  0  0  0  0
   -4.8848    0.5997   10.0071 O   0  0  0  0  0  0  0  0  0  0  0  0
   -7.1085   -0.1922    9.5688 C   0  0  0  0  0  0  0  0  0  0  0  0
   -7.2006   -1.4981   10.3439 C   0  0  0  0  0  0  0  0  0  0  0  0
   -8.6209   -1.8845   10.6086 C   0  0  0  0  0  0  0  0  0  0  0  0
   -9.3675   -1.5646   11.7253 C   0  0  0  0  0  0  0  0  0  0  0  0
  -10.6178   -2.1009   11.5737 N   0  0  0  0  0  0  0  0  0  0  0  0
  -10.7095   -2.7659   10.3735 C   0  0  0  0  0  0  0  0  0  0  0  0
  -11.7864   -3.4549    9.8026 C   0  0  0  0  0  0  0  0  0  0  0  0
  -11.5872   -4.0452    8.5509 C   0  0  0  0  0  0  0  0  0  0  0  0
  -10.3600   -3.9491    7.8993 C   0  0  0  0  0  0  0  0  0  0  0  0
   -9.2938   -3.2564    8.4843 C   0  0  0  0  0  0  0  0  0  0  0  0
   -9.4690   -2.6514    9.7461 C   0  0  0  0  0  0  0  0  0  0  0  0
  1  2  1  0
  2  3  1  0
  3  4  1  0
  4  5  2  0
  4  6  1  0
  6  7  1  0
  7  8  2  0
  7  9  1  0
  9 10  1  0
 10 11  1  0
 11 12  2  0
 12 13  1  0
 13 14  1  0
 14 15  2  0
 15 16  1  0
 16 17  2  0
 17 18  1  0
 18 19  2  0
 19 11  1  0
 19 14  1  0
M  END
$$$$
