
     RDKit          3D

 24 26  0  0  0  0  0  0  0  0999 V2000
   -8.7361    1.4503    1.8381 C   0  0  0  0  0  0  0  0  0  0  0  0
   -9.6399    1.9212    0.7979 N   0  0  0  0  0  0  0  0  0  0  0  0
   -8.9284    2.4913   -0.3479 C   0  0  0  0  0  0  0  0  0  0  0  0
   -8.3372    3.8538   -0.0732 C   0  0  0  0  0  0  0  0  0  0  0  0
   -9.1528    4.9900   -0.0348 C   0  0  0  0  0  0  0  0  0  0  0  0
   -8.6098    6.2502    0.2352 C   0  0  0  0  0  0  0  0  0  0  0  0
   -7.2402    6.3981    0.4726 C   0  0  0  0  0  0  0  0  0  0  0  0
   -6.6213    7.5878    0.7559 O   0  0  0  0  0  0  0  0  0  0  0  0
   -7.4235    8.7609    0.7493 C   0  0  0  0  0  0  0  0  0  0  0  0
   -6.4067    5.2655    0.4342 C   0  0  0  0  0  0  0  0  0  0  0  0
   -4.9200    5.3646    0.7045 C   0  0  0  0  0  0  0  0  0  0  0  0
   -4.6198    5.3533    2.2064 C   0  0  0  0  0  0  0  0  0  0  0  0
   -3.1228    5.4668    2.4941 C   0  0  0  0  0  0  0  0  0  0  0  0
   -2.4417    4.2489    2.0839 N   0  0  0  0  0  0  0  0  0  0  0  0
   -1.0608    4.2363    2.3146 C   0  0  0  0  0  0  0  0  0  0  0  0
   -0.3268    5.3803    2.2570 N   0  0  0  0  0  0  0  0  0  0  0  0
    1.0073    5.3112    2.4630 C   0  0  0  0  0  0  0  0  0  0  0  0
    1.7579    4.2259    2.7419 N   0  0  0  0  0  0  0  0  0  0  0  0
    0.9905    3.1291    2.7955 C   0  0  0  0  0  0  0  0  0  0  0  0
    1.3987    1.8532    3.0536 N   0  0  0  0  0  0  0  0  0  0  0  0
    0.2907    1.0501    3.0205 C   0  0  0  0  0  0  0  0  0  0  0  0
   -0.8041    1.7324    2.7562 N   0  0  0  0  0  0  0  0  0  0  0  0
   -0.3765    3.0388    2.6035 C   0  0  0  0  0  0  0  0  0  0  0  0
   -6.9655    4.0031    0.1666 C   0  0  0  0  0  0  0  0  0  0  0  0
  1  2  1  0
  2  3  1  0
  3  4  1  0
  4  5  2  0
  5  6  1  0
  6  7  2  0
  7  8  1  0
  8  9  1  0
  7 10  1  0
 10 11  1  0
 11 12  1  0
 12 13  1  0
 13 14  1  0
 14 15  1  0
 15 16  2  0
 16 17  1  0
 17 18  2  0
 18 19  1  0
 19 20  1  0
 20 21  1  0
 21 22  2  0
 22 23  1  0
 10 24  2  0
 24  4  1  0
 23 15  1  0
 23 19  2  0
M  END
$$$$
