
     RDKit          3D

 15 16  0  0  0  0  0  0  0  0999 V2000
   -9.9307    3.8241   21.6326 N   0  0  0  0  0  0  0  0  0  0  0  0
  -11.0655    3.4664   20.7899 C   0  0  0  0  0  0  0  0  0  0  0  0
  -10.9937    1.9991   20.3673 C   0  0  0  0  0  0  0  0  0  0  0  0
  -12.1313    1.6056   19.4269 C   0  0  0  0  0  0  0  0  0  0  0  0
  -13.4652    1.5414   20.1524 C   0  0  0  0  0  0  0  0  0  0  0  0
  -13.6639    0.6219   20.9493 O   0  0  0  0  0  0  0  0  0  0  0  0
  -14.4783    2.5756   19.9126 C   0  0  0  0  0  0  0  0  0  0  0  0
  -14.3500    3.6937   19.1048 C   0  0  0  0  0  0  0  0  0  0  0  0
  -15.5168    4.4102   19.1591 N   0  0  0  0  0  0  0  0  0  0  0  0
  -16.4188    3.7884   19.9865 C   0  0  0  0  0  0  0  0  0  0  0  0
  -17.7237    4.1594   20.3346 C   0  0  0  0  0  0  0  0  0  0  0  0
  -18.4227    3.3277   21.2133 C   0  0  0  0  0  0  0  0  0  0  0  0
  -17.8375    2.1721   21.7222 C   0  0  0  0  0  0  0  0  0  0  0  0
  -16.5321    1.8174   21.3632 C   0  0  0  0  0  0  0  0  0  0  0  0
  -15.8001    2.6373   20.4767 C   0  0  0  0  0  0  0  0  0  0  0  0
  1  2  1  0
  2  3  1  0
  3  4  1  0
  4  5  1  0
  5  6  2  0
  5  7  1  0
  7  8  2  0
  8  9  1  0
  9 10  1  0
 10 11  2  0
 11 12  1  0
 12 13  2  0
 13 14  1  0
 14 15  2  0
 15  7  1  0
 15 10  1  0
M  END
$$$$
