
     RDKit          3D

 26 28  0  0  0  0  0  0  0  0999 V2000
  -75.5557  -32.5941   59.5554 N   0  0  0  0  0  0  0  0  0  0  0  0
  -75.9911  -33.4117   58.4234 C   0  0  0  0  0  0  0  0  0  0  0  0
  -74.8729  -33.5850   57.4024 C   0  0  0  0  0  0  0  0  0  0  0  0
  -73.9638  -34.7333   57.7867 C   0  0  0  0  0  0  0  0  0  0  0  0
  -74.2282  -35.8862   57.4374 O   0  0  0  0  0  0  0  0  0  0  0  0
  -72.7367  -34.4278   58.6217 C   0  0  0  0  0  0  0  0  0  0  0  0
  -71.6060  -33.8277   57.7902 C   0  0  0  0  0  0  0  0  0  0  0  0
  -70.8883  -34.8466   56.9317 C   0  0  0  0  0  0  0  0  0  0  0  0
  -71.2903  -35.0067   55.5980 C   0  0  0  0  0  0  0  0  0  0  0  0
  -70.6366  -35.9322   54.7997 C   0  0  0  0  0  0  0  0  0  0  0  0
  -69.6162  -36.7013   55.2259 N   0  0  0  0  0  0  0  0  0  0  0  0
  -69.2421  -36.5379   56.5120 C   0  0  0  0  0  0  0  0  0  0  0  0
  -69.8379  -35.6500   57.4124 C   0  0  0  0  0  0  0  0  0  0  0  0
  -69.3039  -35.5841   58.8211 C   0  0  0  0  0  0  0  0  0  0  0  0
  -68.0921  -34.6692   58.9496 C   0  0  0  0  0  0  0  0  0  0  0  0
  -68.2074  -33.4587   58.7800 O   0  0  0  0  0  0  0  0  0  0  0  0
  -66.9361  -35.3649   59.2773 N   0  0  0  0  0  0  0  0  0  0  0  0
  -65.7238  -34.7358   59.4256 C   0  0  0  0  0  0  0  0  0  0  0  0
  -65.4313  -33.4651   59.2844 N   0  0  0  0  0  0  0  0  0  0  0  0
  -64.0878  -33.3521   59.5329 C   0  0  0  0  0  0  0  0  0  0  0  0
  -63.2616  -32.2199   59.5144 C   0  0  0  0  0  0  0  0  0  0  0  0
  -61.9029  -32.3777   59.8152 C   0  0  0  0  0  0  0  0  0  0  0  0
  -61.3798  -33.6360   60.1263 C   0  0  0  0  0  0  0  0  0  0  0  0
  -62.1897  -34.7783   60.1474 C   0  0  0  0  0  0  0  0  0  0  0  0
  -63.5389  -34.5900   59.8441 C   0  0  0  0  0  0  0  0  0  0  0  0
  -64.6018  -35.4520   59.7680 N   0  0  0  0  0  0  0  0  0  0  0  0
  1  2  1  0
  2  3  1  0
  3  4  1  0
  4  5  2  0
  4  6  1  0
  6  7  1  0
  7  8  1  0
  8  9  2  0
  9 10  1  0
 10 11  2  0
 11 12  1  0
 12 13  2  0
 13 14  1  0
 14 15  1  0
 15 16  2  0
 15 17  1  0
 17 18  1  0
 18 19  2  0
 19 20  1  0
 20 21  2  0
 21 22  1  0
 22 23  2  0
 23 24  1  0
 24 25  2  0
 25 26  1  0
 13  8  1  0
 26 18  1  0
 25 20  1  0
M  END
$$$$
