
     RDKit          3D

 23 25  0  0  0  0  0  0  0  0999 V2000
   11.6273    2.1839   -0.9371 N   0  0  0  0  0  0  0  0  0  0  0  0
   12.0506    1.4637    0.1483 C   0  0  0  0  0  0  0  0  0  0  0  0
   12.5532    0.3529    0.0121 O   0  0  0  0  0  0  0  0  0  0  0  0
   11.8182    2.0457    1.5060 C   0  0  0  0  0  0  0  0  0  0  0  0
   11.7041    1.1037    2.5525 C   0  0  0  0  0  0  0  0  0  0  0  0
   11.4718    1.5139    3.8637 C   0  0  0  0  0  0  0  0  0  0  0  0
   11.3556    2.8689    4.1332 C   0  0  0  0  0  0  0  0  0  0  0  0
   11.1437    3.2753    5.3921 F   0  0  0  0  0  0  0  0  0  0  0  0
   11.4800    3.8205    3.1214 C   0  0  0  0  0  0  0  0  0  0  0  0
   11.7204    3.4351    1.7847 C   0  0  0  0  0  0  0  0  0  0  0  0
   11.8905    4.4180    0.7686 N   0  0  0  0  0  0  0  0  0  0  0  0
   10.6708    5.2749    0.6809 C   0  0  0  0  0  0  0  0  0  0  0  0
   10.7726    6.2633   -0.4680 C   0  0  0  0  0  0  0  0  0  0  0  0
    9.8038    6.5325   -1.1796 O   0  0  0  0  0  0  0  0  0  0  0  0
   12.0720    7.0223   -0.5743 C   0  0  0  0  0  0  0  0  0  0  0  0
   13.2465    6.0660   -0.4261 C   0  0  0  0  0  0  0  0  0  0  0  0
   13.1579    5.2075    0.8746 C   0  0  0  0  0  0  0  0  0  0  0  0
   14.5077    4.6440    1.0799 N   0  0  0  0  0  0  0  0  0  0  0  0
   14.9289    3.6263    0.1106 C   0  0  0  0  0  0  0  0  0  0  0  0
   16.4353    3.3528    0.2316 C   0  0  0  0  0  0  0  0  0  0  0  0
   16.8373    2.9843    1.6559 C   0  0  0  0  0  0  0  0  0  0  0  0
   16.2816    3.9974    2.6536 C   0  0  0  0  0  0  0  0  0  0  0  0
   14.7784    4.1996    2.4478 C   0  0  0  0  0  0  0  0  0  0  0  0
  1  2  1  0
  2  3  2  0
  2  4  1  0
  4  5  2  0
  5  6  1  0
  6  7  2  0
  7  8  1  0
  7  9  1  0
  9 10  2  0
 10 11  1  0
 11 12  1  0
 12 13  1  0
 13 14  2  0
 13 15  1  0
 15 16  1  0
 16 17  1  0
 17 18  1  0
 18 19  1  0
 19 20  1  0
 20 21  1  0
 21 22  1  0
 22 23  1  0
 10  4  1  0
 17 11  1  0
 23 18  1  0
M  END
$$$$
