
     RDKit          3D

 31 34  0  0  0  0  0  0  0  0999 V2000
   -5.9635   -1.9656    1.5259 N   0  0  0  0  0  0  0  0  0  0  0  0
   -5.4372   -2.6227    2.9792 S   0  0  0  0  0  0  0  0  0  0  0  0
   -4.3133   -1.8343    3.4273 O   0  0  0  0  0  0  0  0  0  0  0  0
   -6.6378   -2.7451    3.7784 O   0  0  0  0  0  0  0  0  0  0  0  0
   -4.8935   -4.2437    2.5277 C   0  0  0  0  0  0  0  0  0  0  0  0
   -5.5884   -5.3337    3.0680 C   0  0  0  0  0  0  0  0  0  0  0  0
   -5.1396   -6.6057    2.7729 C   0  0  0  0  0  0  0  0  0  0  0  0
   -4.0678   -6.8530    1.9950 N   0  0  0  0  0  0  0  0  0  0  0  0
   -3.4227   -5.7778    1.4840 C   0  0  0  0  0  0  0  0  0  0  0  0
   -3.7723   -4.4395    1.7076 C   0  0  0  0  0  0  0  0  0  0  0  0
   -3.0546   -3.3619    1.1413 N   0  0  0  0  0  0  0  0  0  0  0  0
   -3.3488   -3.2796   -0.3132 C   0  0  0  0  0  0  0  0  0  0  0  0
   -2.6866   -2.0529   -0.9177 C   0  0  0  0  0  0  0  0  0  0  0  0
   -3.2600   -1.3262   -1.7282 O   0  0  0  0  0  0  0  0  0  0  0  0
   -1.2315   -1.8546   -0.5729 C   0  0  0  0  0  0  0  0  0  0  0  0
   -1.0294   -1.9967    0.9270 C   0  0  0  0  0  0  0  0  0  0  0  0
   -1.5909   -3.3347    1.4591 C   0  0  0  0  0  0  0  0  0  0  0  0
   -1.2845   -3.4355    2.9903 C   0  0  0  0  0  0  0  0  0  0  0  0
    0.1234   -3.7828    3.2643 N   0  0  0  0  0  0  0  0  0  0  0  0
    0.5307   -5.0688    2.8219 C   0  0  0  0  0  0  0  0  0  0  0  0
   -0.1445   -6.2244    3.2119 C   0  0  0  0  0  0  0  0  0  0  0  0
    0.2741   -7.4409    2.7017 C   0  0  0  0  0  0  0  0  0  0  0  0
    1.3082   -7.5839    1.8495 N   0  0  0  0  0  0  0  0  0  0  0  0
    1.9708   -6.4527    1.5096 C   0  0  0  0  0  0  0  0  0  0  0  0
    1.6453   -5.1706    1.9568 C   0  0  0  0  0  0  0  0  0  0  0  0
    2.3516   -3.9918    1.6027 N   0  0  0  0  0  0  0  0  0  0  0  0
    3.3713   -3.6743    2.6348 C   0  0  0  0  0  0  0  0  0  0  0  0
    4.4742   -2.7631    2.0789 C   0  0  0  0  0  0  0  0  0  0  0  0
    3.9273   -1.7796    1.0517 C   0  0  0  0  0  0  0  0  0  0  0  0
    3.2255   -2.4957   -0.1066 C   0  0  0  0  0  0  0  0  0  0  0  0
    2.8505   -3.9431    0.2241 C   0  0  0  0  0  0  0  0  0  0  0  0
  1  2  1  0
  2  3  2  0
  2  4  2  0
  2  5  1  0
  5  6  2  0
  6  7  1  0
  7  8  2  0
  8  9  1  0
  9 10  2  0
 10 11  1  0
 11 12  1  0
 12 13  1  0
 13 14  2  0
 13 15  1  0
 15 16  1  0
 16 17  1  0
 17 18  1  0
 18 19  1  0
 19 20  1  0
 20 21  2  0
 21 22  1  0
 22 23  2  0
 23 24  1  0
 24 25  2  0
 25 26  1  0
 26 27  1  0
 27 28  1  0
 28 29  1  0
 29 30  1  0
 30 31  1  0
 10  5  1  0
 17 11  1  0
 25 20  1  0
 31 26  1  0
M  END
$$$$
