
     RDKit          3D

 23 25  0  0  0  0  0  0  0  0999 V2000
   13.3826   31.0475  -46.9220 N   0  0  0  0  0  0  0  0  0  0  0  0
   13.8059   30.3272  -45.8366 C   0  0  0  0  0  0  0  0  0  0  0  0
   14.3085   29.2165  -45.9728 O   0  0  0  0  0  0  0  0  0  0  0  0
   13.5735   30.9093  -44.4789 C   0  0  0  0  0  0  0  0  0  0  0  0
   13.4594   29.9673  -43.4324 C   0  0  0  0  0  0  0  0  0  0  0  0
   13.2271   30.3775  -42.1212 C   0  0  0  0  0  0  0  0  0  0  0  0
   13.1109   31.7324  -41.8517 C   0  0  0  0  0  0  0  0  0  0  0  0
   12.8990   32.1389  -40.5929 F   0  0  0  0  0  0  0  0  0  0  0  0
   13.2353   32.6841  -42.8635 C   0  0  0  0  0  0  0  0  0  0  0  0
   13.4757   32.2987  -44.2002 C   0  0  0  0  0  0  0  0  0  0  0  0
   13.6458   33.2816  -45.2163 N   0  0  0  0  0  0  0  0  0  0  0  0
   12.4261   34.1385  -45.3041 C   0  0  0  0  0  0  0  0  0  0  0  0
   12.5279   35.1269  -46.4529 C   0  0  0  0  0  0  0  0  0  0  0  0
   11.5591   35.3961  -47.1645 O   0  0  0  0  0  0  0  0  0  0  0  0
   13.8273   35.8859  -46.5592 C   0  0  0  0  0  0  0  0  0  0  0  0
   15.0018   34.9296  -46.4110 C   0  0  0  0  0  0  0  0  0  0  0  0
   14.9132   34.0711  -45.1103 C   0  0  0  0  0  0  0  0  0  0  0  0
   16.2630   33.5076  -44.9050 N   0  0  0  0  0  0  0  0  0  0  0  0
   16.6842   32.4899  -45.8743 C   0  0  0  0  0  0  0  0  0  0  0  0
   18.1906   32.2164  -45.7533 C   0  0  0  0  0  0  0  0  0  0  0  0
   18.5926   31.8479  -44.3291 C   0  0  0  0  0  0  0  0  0  0  0  0
   18.0369   32.8610  -43.3313 C   0  0  0  0  0  0  0  0  0  0  0  0
   16.5337   33.0632  -43.5371 C   0  0  0  0  0  0  0  0  0  0  0  0
  1  2  1  0
  2  3  2  0
  2  4  1  0
  4  5  2  0
  5  6  1  0
  6  7  2  0
  7  8  1  0
  7  9  1  0
  9 10  2  0
 10 11  1  0
 11 12  1  0
 12 13  1  0
 13 14  2  0
 13 15  1  0
 15 16  1  0
 16 17  1  0
 17 18  1  0
 18 19  1  0
 19 20  1  0
 20 21  1  0
 21 22  1  0
 22 23  1  0
 10  4  1  0
 17 11  1  0
 23 18  1  0
M  END
$$$$
