
     RDKit          3D

 26 28  0  0  0  0  0  0  0  0999 V2000
   20.2586    3.5276   29.1349 N   0  0  0  0  0  0  0  0  0  0  0  0
   19.8437    4.7470   28.6718 C   0  0  0  0  0  0  0  0  0  0  0  0
   20.0818    5.7742   29.2922 O   0  0  0  0  0  0  0  0  0  0  0  0
   19.1023    4.7424   27.3782 C   0  0  0  0  0  0  0  0  0  0  0  0
   18.1424    3.7376   27.1632 C   0  0  0  0  0  0  0  0  0  0  0  0
   17.4088    3.7023   25.9763 C   0  0  0  0  0  0  0  0  0  0  0  0
   17.6256    4.6737   25.0047 C   0  0  0  0  0  0  0  0  0  0  0  0
   16.7216    4.6356   23.5417 Cl  0  0  0  0  0  0  0  0  0  0  0  0
   18.5681    5.6819   25.2088 C   0  0  0  0  0  0  0  0  0  0  0  0
   19.3249    5.7315   26.3957 C   0  0  0  0  0  0  0  0  0  0  0  0
   20.3446    6.8335   26.5664 C   0  0  0  0  0  0  0  0  0  0  0  0
   21.6674    6.2691   26.7700 N   0  0  0  0  0  0  0  0  0  0  0  0
   22.6461    6.1628   25.7740 C   0  0  0  0  0  0  0  0  0  0  0  0
   22.3400    6.2023   24.4118 C   0  0  0  0  0  0  0  0  0  0  0  0
   23.3632    6.0992   23.4850 C   0  0  0  0  0  0  0  0  0  0  0  0
   24.6575    5.9448   23.8130 N   0  0  0  0  0  0  0  0  0  0  0  0
   24.9362    5.8553   25.1346 C   0  0  0  0  0  0  0  0  0  0  0  0
   23.9923    5.9071   26.1687 C   0  0  0  0  0  0  0  0  0  0  0  0
   24.3175    5.7346   27.5291 N   0  0  0  0  0  0  0  0  0  0  0  0
   23.6001    4.6352   28.2178 C   0  0  0  0  0  0  0  0  0  0  0  0
   24.5397    3.5521   28.7205 C   0  0  0  0  0  0  0  0  0  0  0  0
   24.1722    2.7294   29.5628 O   0  0  0  0  0  0  0  0  0  0  0  0
   25.8908    3.4493   28.0703 C   0  0  0  0  0  0  0  0  0  0  0  0
   26.5590    4.7844   27.8969 C   0  0  0  0  0  0  0  0  0  0  0  0
   27.7687    4.8690   27.6806 O   0  0  0  0  0  0  0  0  0  0  0  0
   25.6791    6.0172   28.0032 C   0  0  0  0  0  0  0  0  0  0  0  0
  1  2  1  0
  2  3  2  0
  2  4  1  0
  4  5  2  0
  5  6  1  0
  6  7  2  0
  7  8  1  0
  7  9  1  0
  9 10  2  0
 10 11  1  0
 11 12  1  0
 12 13  1  0
 13 14  2  0
 14 15  1  0
 15 16  2  0
 16 17  1  0
 17 18  2  0
 18 19  1  0
 19 20  1  0
 20 21  1  0
 21 22  2  0
 21 23  1  0
 23 24  1  0
 24 25  2  0
 24 26  1  0
 10  4  1  0
 18 13  1  0
 26 19  1  0
M  END
$$$$
