
     RDKit          3D

 19 20  0  0  0  0  0  0  0  0999 V2000
   -0.1812   -3.4877    5.5985 N   0  0  0  0  0  0  0  0  0  0  0  0
    0.3258   -4.0054    4.3330 C   0  0  0  0  0  0  0  0  0  0  0  0
    0.3558   -2.9264    3.2608 C   0  0  0  0  0  0  0  0  0  0  0  0
   -1.0362   -2.5460    2.8006 C   0  0  0  0  0  0  0  0  0  0  0  0
   -1.7930   -3.3662    2.2769 O   0  0  0  0  0  0  0  0  0  0  0  0
   -1.4649   -1.1190    2.9904 C   0  0  0  0  0  0  0  0  0  0  0  0
   -1.9006   -0.8119    4.3962 C   0  0  0  0  0  0  0  0  0  0  0  0
   -1.1071   -0.3358    5.2111 O   0  0  0  0  0  0  0  0  0  0  0  0
   -3.3308   -1.1278    4.7728 C   0  0  0  0  0  0  0  0  0  0  0  0
   -3.4229   -2.4336    5.5479 C   0  0  0  0  0  0  0  0  0  0  0  0
   -4.8431   -2.8201    5.8126 C   0  0  0  0  0  0  0  0  0  0  0  0
   -5.5898   -2.5002    6.9294 C   0  0  0  0  0  0  0  0  0  0  0  0
   -6.8401   -3.0364    6.7777 N   0  0  0  0  0  0  0  0  0  0  0  0
   -6.9318   -3.7015    5.5775 C   0  0  0  0  0  0  0  0  0  0  0  0
   -8.0087   -4.3904    5.0066 C   0  0  0  0  0  0  0  0  0  0  0  0
   -7.8095   -4.9808    3.7550 C   0  0  0  0  0  0  0  0  0  0  0  0
   -6.5823   -4.8847    3.1034 C   0  0  0  0  0  0  0  0  0  0  0  0
   -5.5161   -4.1919    3.6883 C   0  0  0  0  0  0  0  0  0  0  0  0
   -5.6913   -3.5869    4.9501 C   0  0  0  0  0  0  0  0  0  0  0  0
  1  2  1  0
  2  3  1  0
  3  4  1  0
  4  5  2  0
  4  6  1  0
  6  7  1  0
  7  8  2  0
  7  9  1  0
  9 10  1  0
 10 11  1  0
 11 12  2  0
 12 13  1  0
 13 14  1  0
 14 15  2  0
 15 16  1  0
 16 17  2  0
 17 18  1  0
 18 19  2  0
 19 11  1  0
 19 14  1  0
M  END
$$$$
