
     RDKit          3D

 19 20  0  0  0  0  0  0  0  0999 V2000
    2.5635    9.4311   -1.7932 N   0  0  0  0  0  0  0  0  0  0  0  0
    3.0706    8.9134   -3.0587 C   0  0  0  0  0  0  0  0  0  0  0  0
    3.1006    9.9924   -4.1309 C   0  0  0  0  0  0  0  0  0  0  0  0
    1.7085   10.3728   -4.5911 C   0  0  0  0  0  0  0  0  0  0  0  0
    0.9518    9.5526   -5.1148 O   0  0  0  0  0  0  0  0  0  0  0  0
    1.2799   11.7998   -4.4013 C   0  0  0  0  0  0  0  0  0  0  0  0
    0.8442   12.1069   -2.9955 C   0  0  0  0  0  0  0  0  0  0  0  0
    1.6376   12.5830   -2.1805 O   0  0  0  0  0  0  0  0  0  0  0  0
   -0.5860   11.7910   -2.6188 C   0  0  0  0  0  0  0  0  0  0  0  0
   -0.6781   10.4852   -1.8437 C   0  0  0  0  0  0  0  0  0  0  0  0
   -2.0984   10.0987   -1.5790 C   0  0  0  0  0  0  0  0  0  0  0  0
   -2.8450   10.4186   -0.4623 C   0  0  0  0  0  0  0  0  0  0  0  0
   -4.0953    9.8824   -0.6139 N   0  0  0  0  0  0  0  0  0  0  0  0
   -4.1870    9.2173   -1.8141 C   0  0  0  0  0  0  0  0  0  0  0  0
   -5.2639    8.5284   -2.3850 C   0  0  0  0  0  0  0  0  0  0  0  0
   -5.0647    7.9380   -3.6367 C   0  0  0  0  0  0  0  0  0  0  0  0
   -3.8375    8.0341   -4.2883 C   0  0  0  0  0  0  0  0  0  0  0  0
   -2.7713    8.7269   -3.7033 C   0  0  0  0  0  0  0  0  0  0  0  0
   -2.9465    9.3319   -2.4415 C   0  0  0  0  0  0  0  0  0  0  0  0
  1  2  1  0
  2  3  1  0
  3  4  1  0
  4  5  2  0
  4  6  1  0
  6  7  1  0
  7  8  2  0
  7  9  1  0
  9 10  1  0
 10 11  1  0
 11 12  2  0
 12 13  1  0
 13 14  1  0
 14 15  2  0
 15 16  1  0
 16 17  2  0
 17 18  1  0
 18 19  2  0
 19 11  1  0
 19 14  1  0
M  END
$$$$
