
     RDKit          3D

 16 17  0  0  0  0  0  0  0  0999 V2000
   -1.7516   12.7891    8.4423 N   0  0  0  0  0  0  0  0  0  0  0  0
   -1.1900   11.6983    9.2275 C   0  0  0  0  0  0  0  0  0  0  0  0
   -2.2864   11.0106   10.0379 C   0  0  0  0  0  0  0  0  0  0  0  0
   -1.7038    9.9285   10.9380 C   0  0  0  0  0  0  0  0  0  0  0  0
   -2.7713    9.0399   11.5462 C   0  0  0  0  0  0  0  0  0  0  0  0
   -2.8200    7.8403   11.2591 O   0  0  0  0  0  0  0  0  0  0  0  0
   -3.7471    9.6642   12.5269 C   0  0  0  0  0  0  0  0  0  0  0  0
   -5.0528   10.0076   11.8889 C   0  0  0  0  0  0  0  0  0  0  0  0
   -5.9197    9.1217   11.2769 C   0  0  0  0  0  0  0  0  0  0  0  0
   -7.0046    9.8181   10.8222 N   0  0  0  0  0  0  0  0  0  0  0  0
   -6.8771   11.1508   11.1335 C   0  0  0  0  0  0  0  0  0  0  0  0
   -7.7394   12.2222   10.8707 C   0  0  0  0  0  0  0  0  0  0  0  0
   -7.3515   13.4902   11.3116 C   0  0  0  0  0  0  0  0  0  0  0  0
   -6.1497   13.6757   11.9892 C   0  0  0  0  0  0  0  0  0  0  0  0
   -5.3001   12.5929   12.2449 C   0  0  0  0  0  0  0  0  0  0  0  0
   -5.6646   11.3018   11.8082 C   0  0  0  0  0  0  0  0  0  0  0  0
  1  2  1  0
  2  3  1  0
  3  4  1  0
  4  5  1  0
  5  6  2  0
  5  7  1  0
  7  8  1  0
  8  9  2  0
  9 10  1  0
 10 11  1  0
 11 12  2  0
 12 13  1  0
 13 14  2  0
 14 15  1  0
 15 16  2  0
 16  8  1  0
 16 11  1  0
M  END
$$$$
