
     RDKit          3D

 27 30  0  0  0  0  0  0  0  0999 V2000
  -25.1892   -4.4420   12.1399 N   0  0  0  0  0  0  0  0  0  0  0  0
  -24.7688   -4.3280   10.7963 C   0  0  0  0  0  0  0  0  0  0  0  0
  -25.1106   -3.1997   10.0552 C   0  0  0  0  0  0  0  0  0  0  0  0
  -24.5753   -3.0569    8.7859 C   0  0  0  0  0  0  0  0  0  0  0  0
  -23.7268   -3.9405    8.2206 N   0  0  0  0  0  0  0  0  0  0  0  0
  -23.3800   -5.0086    8.9783 C   0  0  0  0  0  0  0  0  0  0  0  0
  -23.8394   -5.2540   10.2747 C   0  0  0  0  0  0  0  0  0  0  0  0
  -23.4865   -6.3865   11.0518 N   0  0  0  0  0  0  0  0  0  0  0  0
  -24.3650   -7.5345   10.7509 C   0  0  0  0  0  0  0  0  0  0  0  0
  -23.7317   -8.4757    9.7323 C   0  0  0  0  0  0  0  0  0  0  0  0
  -22.3647   -8.9817   10.1867 C   0  0  0  0  0  0  0  0  0  0  0  0
  -21.7891   -8.1707   11.3446 C   0  0  0  0  0  0  0  0  0  0  0  0
  -22.0296   -6.6579   11.1629 C   0  0  0  0  0  0  0  0  0  0  0  0
  -21.4409   -5.9259   12.3887 C   0  0  0  0  0  0  0  0  0  0  0  0
  -21.2474   -4.4081   12.2570 C   0  0  0  0  0  0  0  0  0  0  0  0
  -20.4621   -3.9258   11.1197 N   0  0  0  0  0  0  0  0  0  0  0  0
  -19.1228   -4.5074   11.0287 C   0  0  0  0  0  0  0  0  0  0  0  0
  -18.3503   -3.8932    9.8569 C   0  0  0  0  0  0  0  0  0  0  0  0
  -17.0056   -4.5441    9.6964 C   0  0  0  0  0  0  0  0  0  0  0  0
  -15.8940   -3.8529   10.0961 N   0  0  0  0  0  0  0  0  0  0  0  0
  -14.6811   -4.4334    9.9538 C   0  0  0  0  0  0  0  0  0  0  0  0
  -14.3959   -5.6540    9.4580 N   0  0  0  0  0  0  0  0  0  0  0  0
  -15.5182   -6.2883    9.0908 C   0  0  0  0  0  0  0  0  0  0  0  0
  -15.6129   -7.5381    8.5526 N   0  0  0  0  0  0  0  0  0  0  0  0
  -16.9399   -7.7943    8.3375 C   0  0  0  0  0  0  0  0  0  0  0  0
  -17.7014   -6.7849    8.7051 N   0  0  0  0  0  0  0  0  0  0  0  0
  -16.8226   -5.8305    9.1716 C   0  0  0  0  0  0  0  0  0  0  0  0
  1  2  1  0
  2  3  2  0
  3  4  1  0
  4  5  2  0
  5  6  1  0
  6  7  2  0
  7  8  1  0
  8  9  1  0
  9 10  1  0
 10 11  1  0
 11 12  1  0
 12 13  1  0
 13 14  1  0
 14 15  1  0
 15 16  1  0
 16 17  1  0
 17 18  1  0
 18 19  1  0
 19 20  2  0
 20 21  1  0
 21 22  2  0
 22 23  1  0
 23 24  1  0
 24 25  1  0
 25 26  2  0
 26 27  1  0
  7  2  1  0
 13  8  1  0
 27 19  1  0
 27 23  2  0
M  END
$$$$
