
     RDKit          3D

 16 17  0  0  0  0  0  0  0  0999 V2000
  -11.3245    2.4779   77.5221 N   0  0  0  0  0  0  0  0  0  0  0  0
  -12.2287    2.3460   78.6644 C   0  0  0  0  0  0  0  0  0  0  0  0
  -13.6415    2.0275   78.1915 C   0  0  0  0  0  0  0  0  0  0  0  0
  -14.6034    1.8732   79.3556 C   0  0  0  0  0  0  0  0  0  0  0  0
  -14.2778    2.1339   80.5131 O   0  0  0  0  0  0  0  0  0  0  0  0
  -15.9995    1.4038   78.9938 C   0  0  0  0  0  0  0  0  0  0  0  0
  -16.8929    1.2580   80.2218 C   0  0  0  0  0  0  0  0  0  0  0  0
  -18.2678    0.7947   79.8555 C   0  0  0  0  0  0  0  0  0  0  0  0
  -18.7168   -0.5116   79.8510 C   0  0  0  0  0  0  0  0  0  0  0  0
  -20.0265   -0.5152   79.4537 N   0  0  0  0  0  0  0  0  0  0  0  0
  -20.4482    0.7668   79.1907 C   0  0  0  0  0  0  0  0  0  0  0  0
  -21.6949    1.2356   78.7591 C   0  0  0  0  0  0  0  0  0  0  0  0
  -21.8408    2.6137   78.5754 C   0  0  0  0  0  0  0  0  0  0  0  0
  -20.7816    3.4853   78.8156 C   0  0  0  0  0  0  0  0  0  0  0  0
  -19.5418    2.9992   79.2468 C   0  0  0  0  0  0  0  0  0  0  0  0
  -19.3671    1.6130   79.4386 C   0  0  0  0  0  0  0  0  0  0  0  0
  1  2  1  0
  2  3  1  0
  3  4  1  0
  4  5  2  0
  4  6  1  0
  6  7  1  0
  7  8  1  0
  8  9  2  0
  9 10  1  0
 10 11  1  0
 11 12  2  0
 12 13  1  0
 13 14  2  0
 14 15  1  0
 15 16  2  0
 16  8  1  0
 16 11  1  0
M  END
$$$$
