
     RDKit          3D

 16 17  0  0  0  0  0  0  0  0999 V2000
    5.9269   24.4315  -48.0596 N   0  0  0  0  0  0  0  0  0  0  0  0
    6.4885   23.3407  -47.2744 C   0  0  0  0  0  0  0  0  0  0  0  0
    5.3921   22.6530  -46.4640 C   0  0  0  0  0  0  0  0  0  0  0  0
    5.9746   21.5709  -45.5639 C   0  0  0  0  0  0  0  0  0  0  0  0
    4.9071   20.6824  -44.9557 C   0  0  0  0  0  0  0  0  0  0  0  0
    4.8584   19.4827  -45.2428 O   0  0  0  0  0  0  0  0  0  0  0  0
    3.9314   21.3067  -43.9750 C   0  0  0  0  0  0  0  0  0  0  0  0
    2.6256   21.6501  -44.6129 C   0  0  0  0  0  0  0  0  0  0  0  0
    1.7587   20.7641  -45.2250 C   0  0  0  0  0  0  0  0  0  0  0  0
    0.6738   21.4605  -45.6796 N   0  0  0  0  0  0  0  0  0  0  0  0
    0.8013   22.7932  -45.3684 C   0  0  0  0  0  0  0  0  0  0  0  0
   -0.0609   23.8647  -45.6312 C   0  0  0  0  0  0  0  0  0  0  0  0
    0.3270   25.1326  -45.1903 C   0  0  0  0  0  0  0  0  0  0  0  0
    1.5287   25.3181  -44.5127 C   0  0  0  0  0  0  0  0  0  0  0  0
    2.3784   24.2353  -44.2570 C   0  0  0  0  0  0  0  0  0  0  0  0
    2.0138   22.9442  -44.6936 C   0  0  0  0  0  0  0  0  0  0  0  0
  1  2  1  0
  2  3  1  0
  3  4  1  0
  4  5  1  0
  5  6  2  0
  5  7  1  0
  7  8  1  0
  8  9  2  0
  9 10  1  0
 10 11  1  0
 11 12  2  0
 12 13  1  0
 13 14  2  0
 14 15  1  0
 15 16  2  0
 16  8  1  0
 16 11  1  0
M  END
$$$$
