
     RDKit          3D

 19 20  0  0  0  0  0  0  0  0999 V2000
   11.6690   32.1647    3.9356 N   0  0  0  0  0  0  0  0  0  0  0  0
   12.1761   31.6471    2.6702 C   0  0  0  0  0  0  0  0  0  0  0  0
   12.2061   32.7260    1.5980 C   0  0  0  0  0  0  0  0  0  0  0  0
   10.8140   33.1064    1.1378 C   0  0  0  0  0  0  0  0  0  0  0  0
   10.0573   32.2862    0.6141 O   0  0  0  0  0  0  0  0  0  0  0  0
   10.3854   34.5335    1.3276 C   0  0  0  0  0  0  0  0  0  0  0  0
    9.9497   34.8405    2.7333 C   0  0  0  0  0  0  0  0  0  0  0  0
   10.7431   35.3166    3.5483 O   0  0  0  0  0  0  0  0  0  0  0  0
    8.5194   34.5246    3.1100 C   0  0  0  0  0  0  0  0  0  0  0  0
    8.4274   33.2188    3.8851 C   0  0  0  0  0  0  0  0  0  0  0  0
    7.0071   32.8323    4.1498 C   0  0  0  0  0  0  0  0  0  0  0  0
    6.2605   33.1523    5.2666 C   0  0  0  0  0  0  0  0  0  0  0  0
    5.0102   32.6160    5.1149 N   0  0  0  0  0  0  0  0  0  0  0  0
    4.9185   31.9509    3.9147 C   0  0  0  0  0  0  0  0  0  0  0  0
    3.8416   31.2620    3.3438 C   0  0  0  0  0  0  0  0  0  0  0  0
    4.0407   30.6717    2.0922 C   0  0  0  0  0  0  0  0  0  0  0  0
    5.2680   30.7677    1.4406 C   0  0  0  0  0  0  0  0  0  0  0  0
    6.3341   31.4605    2.0255 C   0  0  0  0  0  0  0  0  0  0  0  0
    6.1590   32.0655    3.2873 C   0  0  0  0  0  0  0  0  0  0  0  0
  1  2  1  0
  2  3  1  0
  3  4  1  0
  4  5  2  0
  4  6  1  0
  6  7  1  0
  7  8  2  0
  7  9  1  0
  9 10  1  0
 10 11  1  0
 11 12  2  0
 12 13  1  0
 13 14  1  0
 14 15  2  0
 15 16  1  0
 16 17  2  0
 17 18  1  0
 18 19  2  0
 19 11  1  0
 19 14  1  0
M  END
$$$$
