
     RDKit          3D

 29 32  0  0  0  0  0  0  0  0999 V2000
  -34.1445    5.9015   31.9966 N   0  0  0  0  0  0  0  0  0  0  0  0
  -33.7544    5.6643   33.3878 C   0  0  0  0  0  0  0  0  0  0  0  0
  -33.2599    6.9622   34.0256 C   0  0  0  0  0  0  0  0  0  0  0  0
  -32.5195    6.5148   35.2759 C   0  0  0  0  0  0  0  0  0  0  0  0
  -32.1618    5.0444   35.0563 C   0  0  0  0  0  0  0  0  0  0  0  0
  -32.5429    4.6968   33.5998 C   0  0  0  0  0  0  0  0  0  0  0  0
  -32.7519    3.2411   33.4653 N   0  0  0  0  0  0  0  0  0  0  0  0
  -33.8429    2.8832   32.5353 C   0  0  0  0  0  0  0  0  0  0  0  0
  -33.9251    1.3835   32.2129 C   0  0  0  0  0  0  0  0  0  0  0  0
  -33.3445    0.5510   33.3402 C   0  0  0  0  0  0  0  0  0  0  0  0
  -31.8919    0.9521   33.6058 C   0  0  0  0  0  0  0  0  0  0  0  0
  -31.5548    2.4110   33.1915 C   0  0  0  0  0  0  0  0  0  0  0  0
  -30.2127    2.8254   33.8553 C   0  0  0  0  0  0  0  0  0  0  0  0
  -29.1000    1.9747   33.3757 N   0  0  0  0  0  0  0  0  0  0  0  0
  -27.5275    2.5756   33.5908 S   0  0  0  0  0  0  0  0  0  0  0  0
  -27.5923    3.4698   34.7266 O   0  0  0  0  0  0  0  0  0  0  0  0
  -26.6893    1.3959   33.5660 O   0  0  0  0  0  0  0  0  0  0  0  0
  -27.2042    3.4978   32.1141 C   0  0  0  0  0  0  0  0  0  0  0  0
  -28.0823    3.4024   31.0282 C   0  0  0  0  0  0  0  0  0  0  0  0
  -27.8123    4.1546   29.9018 C   0  0  0  0  0  0  0  0  0  0  0  0
  -26.7516    4.9760   29.7926 N   0  0  0  0  0  0  0  0  0  0  0  0
  -25.9148    5.0317   30.8573 C   0  0  0  0  0  0  0  0  0  0  0  0
  -26.0720    4.3189   32.0492 C   0  0  0  0  0  0  0  0  0  0  0  0
  -25.1489    4.4032   33.0940 N   0  0  0  0  0  0  0  0  0  0  0  0
  -25.1143    5.6920   33.8085 C   0  0  0  0  0  0  0  0  0  0  0  0
  -23.7294    6.3299   33.7396 C   0  0  0  0  0  0  0  0  0  0  0  0
  -22.6494    5.4018   34.2987 C   0  0  0  0  0  0  0  0  0  0  0  0
  -22.9364    3.9239   34.0203 C   0  0  0  0  0  0  0  0  0  0  0  0
  -23.8630    3.7445   32.8218 C   0  0  0  0  0  0  0  0  0  0  0  0
  1  2  1  0
  2  3  1  0
  3  4  1  0
  4  5  1  0
  5  6  1  0
  6  7  1  0
  7  8  1  0
  8  9  1  0
  9 10  1  0
 10 11  1  0
 11 12  1  0
 12 13  1  0
 13 14  1  0
 14 15  1  0
 15 16  2  0
 15 17  2  0
 15 18  1  0
 18 19  2  0
 19 20  1  0
 20 21  2  0
 21 22  1  0
 22 23  2  0
 23 24  1  0
 24 25  1  0
 25 26  1  0
 26 27  1  0
 27 28  1  0
 28 29  1  0
  6  2  1  0
 12  7  1  0
 23 18  1  0
 29 24  1  0
M  END
$$$$
