
     RDKit          3D

 19 20  0  0  0  0  0  0  0  0999 V2000
  -13.5611   -3.2341   28.0482 N   0  0  0  0  0  0  0  0  0  0  0  0
  -13.0540   -3.7518   26.7827 C   0  0  0  0  0  0  0  0  0  0  0  0
  -13.0240   -2.6729   25.7105 C   0  0  0  0  0  0  0  0  0  0  0  0
  -14.4161   -2.2924   25.2503 C   0  0  0  0  0  0  0  0  0  0  0  0
  -15.1728   -3.1126   24.7266 O   0  0  0  0  0  0  0  0  0  0  0  0
  -14.8447   -0.8654   25.4401 C   0  0  0  0  0  0  0  0  0  0  0  0
  -15.2804   -0.5583   26.8459 C   0  0  0  0  0  0  0  0  0  0  0  0
  -14.4870   -0.0822   27.6609 O   0  0  0  0  0  0  0  0  0  0  0  0
  -16.7106   -0.8742   27.2226 C   0  0  0  0  0  0  0  0  0  0  0  0
  -16.8027   -2.1800   27.9977 C   0  0  0  0  0  0  0  0  0  0  0  0
  -18.2230   -2.5665   28.2624 C   0  0  0  0  0  0  0  0  0  0  0  0
  -18.9696   -2.2466   29.3791 C   0  0  0  0  0  0  0  0  0  0  0  0
  -20.2199   -2.7829   29.2275 N   0  0  0  0  0  0  0  0  0  0  0  0
  -20.3116   -3.4479   28.0272 C   0  0  0  0  0  0  0  0  0  0  0  0
  -21.3885   -4.1369   27.4563 C   0  0  0  0  0  0  0  0  0  0  0  0
  -21.1893   -4.7272   26.2047 C   0  0  0  0  0  0  0  0  0  0  0  0
  -19.9621   -4.6311   25.5531 C   0  0  0  0  0  0  0  0  0  0  0  0
  -18.8959   -3.9383   26.1381 C   0  0  0  0  0  0  0  0  0  0  0  0
  -19.0711   -3.3333   27.3999 C   0  0  0  0  0  0  0  0  0  0  0  0
  1  2  1  0
  2  3  1  0
  3  4  1  0
  4  5  2  0
  4  6  1  0
  6  7  1  0
  7  8  2  0
  7  9  1  0
  9 10  1  0
 10 11  1  0
 11 12  2  0
 12 13  1  0
 13 14  1  0
 14 15  2  0
 15 16  1  0
 16 17  2  0
 17 18  1  0
 18 19  2  0
 19 11  1  0
 19 14  1  0
M  END
$$$$
