
     RDKit          3D

 28 30  0  0  0  0  0  0  0  0999 V2000
    9.0908   -6.5936   -8.4103 N   0  0  0  0  0  0  0  0  0  0  0  0
    9.1362   -5.8273   -7.2765 C   0  0  0  0  0  0  0  0  0  0  0  0
    8.6511   -6.1710   -6.2069 O   0  0  0  0  0  0  0  0  0  0  0  0
    9.8345   -4.5410   -7.4151 C   0  0  0  0  0  0  0  0  0  0  0  0
   11.2071   -4.4987   -7.1419 C   0  0  0  0  0  0  0  0  0  0  0  0
   11.9066   -3.2980   -7.2986 C   0  0  0  0  0  0  0  0  0  0  0  0
   11.2329   -2.1543   -7.7334 C   0  0  0  0  0  0  0  0  0  0  0  0
   12.1048   -0.6922   -7.9734 Cl  0  0  0  0  0  0  0  0  0  0  0  0
    9.8620   -2.1910   -7.9955 C   0  0  0  0  0  0  0  0  0  0  0  0
    9.1557   -3.3832   -7.8139 C   0  0  0  0  0  0  0  0  0  0  0  0
    7.8272   -3.3982   -8.1422 O   0  0  0  0  0  0  0  0  0  0  0  0
    7.0099   -3.1926   -6.9832 C   0  0  0  0  0  0  0  0  0  0  0  0
    5.6132   -3.1234   -7.3840 N   0  0  0  0  0  0  0  0  0  0  0  0
    5.0227   -4.2838   -7.9477 C   0  0  0  0  0  0  0  0  0  0  0  0
    5.3377   -5.5779   -7.5101 C   0  0  0  0  0  0  0  0  0  0  0  0
    4.7395   -6.6948   -8.0955 C   0  0  0  0  0  0  0  0  0  0  0  0
    3.8043   -6.5218   -9.1036 C   0  0  0  0  0  0  0  0  0  0  0  0
    3.2554   -7.6460   -9.6501 O   0  0  0  0  0  0  0  0  0  0  0  0
    3.4274   -5.2467   -9.5240 C   0  0  0  0  0  0  0  0  0  0  0  0
    3.9985   -4.1052   -8.9318 C   0  0  0  0  0  0  0  0  0  0  0  0
    3.6101   -2.7828   -9.2719 N   0  0  0  0  0  0  0  0  0  0  0  0
    2.7826   -2.1441   -8.2222 C   0  0  0  0  0  0  0  0  0  0  0  0
    1.3073   -2.4638   -8.4043 C   0  0  0  0  0  0  0  0  0  0  0  0
    0.5561   -2.6443   -7.4435 O   0  0  0  0  0  0  0  0  0  0  0  0
    0.7534   -2.3711   -9.7988 C   0  0  0  0  0  0  0  0  0  0  0  0
    1.7100   -2.8148  -10.8684 C   0  0  0  0  0  0  0  0  0  0  0  0
    1.2995   -3.2984  -11.9254 O   0  0  0  0  0  0  0  0  0  0  0  0
    3.1840   -2.5149  -10.6548 C   0  0  0  0  0  0  0  0  0  0  0  0
  1  2  1  0
  2  3  2  0
  2  4  1  0
  4  5  2  0
  5  6  1  0
  6  7  2  0
  7  8  1  0
  7  9  1  0
  9 10  2  0
 10 11  1  0
 11 12  1  0
 12 13  1  0
 13 14  1  0
 14 15  2  0
 15 16  1  0
 16 17  2  0
 17 18  1  0
 17 19  1  0
 19 20  2  0
 20 21  1  0
 21 22  1  0
 22 23  1  0
 23 24  2  0
 23 25  1  0
 25 26  1  0
 26 27  2  0
 26 28  1  0
 10  4  1  0
 20 14  1  0
 28 21  1  0
M  END
$$$$
