
     RDKit          3D

 27 29  0  0  0  0  0  0  0  0999 V2000
   30.5712   22.4497  -62.8103 N   0  0  0  0  0  0  0  0  0  0  0  0
   29.5443   21.7066  -62.0897 C   0  0  0  0  0  0  0  0  0  0  0  0
   28.2810   22.5151  -61.9510 C   0  0  0  0  0  0  0  0  0  0  0  0
   28.1093   23.3886  -60.8703 C   0  0  0  0  0  0  0  0  0  0  0  0
   26.9467   24.1547  -60.7607 C   0  0  0  0  0  0  0  0  0  0  0  0
   25.9405   24.0677  -61.7246 C   0  0  0  0  0  0  0  0  0  0  0  0
   24.8600   24.8719  -61.4928 O   0  0  0  0  0  0  0  0  0  0  0  0
   23.7898   24.8037  -62.4234 C   0  0  0  0  0  0  0  0  0  0  0  0
   22.6397   25.7284  -62.0173 C   0  0  0  0  0  0  0  0  0  0  0  0
   22.6461   26.4477  -61.0227 O   0  0  0  0  0  0  0  0  0  0  0  0
   21.5808   25.6798  -62.8967 N   0  0  0  0  0  0  0  0  0  0  0  0
   20.3220   26.2924  -62.5819 C   0  0  0  0  0  0  0  0  0  0  0  0
   20.3692   27.7993  -62.8619 C   0  0  0  0  0  0  0  0  0  0  0  0
   19.0278   28.4671  -62.5654 C   0  0  0  0  0  0  0  0  0  0  0  0
   17.8494   27.5100  -62.7295 C   0  0  0  0  0  0  0  0  0  0  0  0
   18.1293   26.4419  -63.7826 C   0  0  0  0  0  0  0  0  0  0  0  0
   19.3380   25.6482  -63.4772 N   0  0  0  0  0  0  0  0  0  0  0  0
   19.0447   24.3101  -63.0856 C   0  0  0  0  0  0  0  0  0  0  0  0
   18.2170   23.9889  -62.0041 C   0  0  0  0  0  0  0  0  0  0  0  0
   18.0242   22.6570  -61.6466 C   0  0  0  0  0  0  0  0  0  0  0  0
   17.2099   22.4005  -60.5819 O   0  0  0  0  0  0  0  0  0  0  0  0
   18.6542   21.6264  -62.3376 C   0  0  0  0  0  0  0  0  0  0  0  0
   19.4837   21.9308  -63.4177 C   0  0  0  0  0  0  0  0  0  0  0  0
   19.6447   23.2570  -63.8248 C   0  0  0  0  0  0  0  0  0  0  0  0
   20.5849   23.5836  -64.8393 N   0  0  0  0  0  0  0  0  0  0  0  0
   26.1090   23.2067  -62.8086 C   0  0  0  0  0  0  0  0  0  0  0  0
   27.2737   22.4381  -62.9224 C   0  0  0  0  0  0  0  0  0  0  0  0
  1  2  1  0
  2  3  1  0
  3  4  2  0
  4  5  1  0
  5  6  2  0
  6  7  1  0
  7  8  1  0
  8  9  1  0
  9 10  2  0
  9 11  1  0
 11 12  1  0
 12 13  1  0
 13 14  1  0
 14 15  1  0
 15 16  1  0
 16 17  1  0
 17 18  1  0
 18 19  2  0
 19 20  1  0
 20 21  1  0
 20 22  2  0
 22 23  1  0
 23 24  2  0
 24 25  1  0
  6 26  1  0
 26 27  2  0
 27  3  1  0
 17 12  1  0
 24 18  1  0
M  END
$$$$
