
     RDKit          3D

 23 25  0  0  0  0  0  0  0  0999 V2000
  -11.4349   -5.7811   -8.8389 C   0  0  0  0  0  0  0  0  0  0  0  0
  -10.2907   -6.4765   -8.3590 O   0  0  0  0  0  0  0  0  0  0  0  0
   -9.4915   -5.8097   -7.4715 C   0  0  0  0  0  0  0  0  0  0  0  0
   -9.6095   -4.4731   -7.1094 C   0  0  0  0  0  0  0  0  0  0  0  0
   -8.7178   -3.9236   -6.1856 C   0  0  0  0  0  0  0  0  0  0  0  0
   -7.6991   -4.6988   -5.5950 C   0  0  0  0  0  0  0  0  0  0  0  0
   -6.7966   -4.0530   -4.5648 C   0  0  0  0  0  0  0  0  0  0  0  0
   -7.5424   -3.5624   -3.3993 N   0  0  0  0  0  0  0  0  0  0  0  0
   -7.5519   -6.0465   -5.9849 C   0  0  0  0  0  0  0  0  0  0  0  0
   -6.4930   -6.8280   -5.4783 N   0  0  0  0  0  0  0  0  0  0  0  0
   -6.9058   -8.0570   -4.7813 C   0  0  0  0  0  0  0  0  0  0  0  0
   -6.8326   -9.2914   -5.6614 C   0  0  0  0  0  0  0  0  0  0  0  0
   -7.6100  -10.2386   -5.5304 O   0  0  0  0  0  0  0  0  0  0  0  0
   -5.7320   -9.3327   -6.6916 C   0  0  0  0  0  0  0  0  0  0  0  0
   -4.6809   -8.2794   -6.3727 C   0  0  0  0  0  0  0  0  0  0  0  0
   -5.3091   -6.8603   -6.3755 C   0  0  0  0  0  0  0  0  0  0  0  0
   -4.2967   -5.8150   -6.1685 N   0  0  0  0  0  0  0  0  0  0  0  0
   -3.4837   -5.9521   -4.9689 C   0  0  0  0  0  0  0  0  0  0  0  0
   -2.8257   -4.6110   -4.6205 C   0  0  0  0  0  0  0  0  0  0  0  0
   -2.3740   -3.8190   -5.8504 C   0  0  0  0  0  0  0  0  0  0  0  0
   -2.2208   -4.7272   -7.0625 C   0  0  0  0  0  0  0  0  0  0  0  0
   -3.5269   -5.4756   -7.3665 C   0  0  0  0  0  0  0  0  0  0  0  0
   -8.4649   -6.5798   -6.9160 C   0  0  0  0  0  0  0  0  0  0  0  0
  1  2  1  0
  2  3  1  0
  3  4  2  0
  4  5  1  0
  5  6  2  0
  6  7  1  0
  7  8  1  0
  6  9  1  0
  9 10  1  0
 10 11  1  0
 11 12  1  0
 12 13  2  0
 12 14  1  0
 14 15  1  0
 15 16  1  0
 16 17  1  0
 17 18  1  0
 18 19  1  0
 19 20  1  0
 20 21  1  0
 21 22  1  0
  9 23  2  0
 23  3  1  0
 16 10  1  0
 22 17  1  0
M  END
$$$$
