
     RDKit          3D

 16 17  0  0  0  0  0  0  0  0999 V2000
  -31.3479  -47.5453   21.4336 N   0  0  0  0  0  0  0  0  0  0  0  0
  -30.6569  -48.5521   20.8153 C   0  0  0  0  0  0  0  0  0  0  0  0
  -29.9585  -48.3413   19.8343 O   0  0  0  0  0  0  0  0  0  0  0  0
  -30.8293  -49.9005   21.4050 C   0  0  0  0  0  0  0  0  0  0  0  0
  -32.1527  -50.3813   21.4792 C   0  0  0  0  0  0  0  0  0  0  0  0
  -32.4096  -51.6664   21.9503 C   0  0  0  0  0  0  0  0  0  0  0  0
  -31.3467  -52.4688   22.3351 C   0  0  0  0  0  0  0  0  0  0  0  0
  -31.5864  -53.7080   22.7834 F   0  0  0  0  0  0  0  0  0  0  0  0
  -30.0361  -52.0061   22.2635 C   0  0  0  0  0  0  0  0  0  0  0  0
  -29.7421  -50.7066   21.8079 C   0  0  0  0  0  0  0  0  0  0  0  0
  -28.3854  -50.3462   21.8095 N   0  0  0  0  0  0  0  0  0  0  0  0
  -28.0179  -49.0473   22.3732 C   0  0  0  0  0  0  0  0  0  0  0  0
  -26.5400  -49.0940   22.7717 C   0  0  0  0  0  0  0  0  0  0  0  0
  -25.6601  -49.7888   21.7261 C   0  0  0  0  0  0  0  0  0  0  0  0
  -26.3785  -49.9554   20.3913 C   0  0  0  0  0  0  0  0  0  0  0  0
  -27.7038  -50.7082   20.5515 C   0  0  0  0  0  0  0  0  0  0  0  0
  1  2  1  0
  2  3  2  0
  2  4  1  0
  4  5  2  0
  5  6  1  0
  6  7  2  0
  7  8  1  0
  7  9  1  0
  9 10  2  0
 10 11  1  0
 11 12  1  0
 12 13  1  0
 13 14  1  0
 14 15  1  0
 15 16  1  0
 10  4  1  0
 16 11  1  0
M  END
$$$$
