
     RDKit          3D

 29 32  0  0  0  0  0  0  0  0999 V2000
   12.1982    1.9214   -3.1439 N   0  0  0  0  0  0  0  0  0  0  0  0
   12.7670    1.3203   -4.3448 C   0  0  0  0  0  0  0  0  0  0  0  0
   11.7608    1.3273   -5.5028 C   0  0  0  0  0  0  0  0  0  0  0  0
   10.5047    0.4652   -5.2740 C   0  0  0  0  0  0  0  0  0  0  0  0
   10.7764   -1.0146   -5.0752 C   0  0  0  0  0  0  0  0  0  0  0  0
   10.6130   -1.5436   -3.7842 C   0  0  0  0  0  0  0  0  0  0  0  0
   10.8699   -2.8875   -3.5698 C   0  0  0  0  0  0  0  0  0  0  0  0
   11.2633   -3.7396   -4.5417 N   0  0  0  0  0  0  0  0  0  0  0  0
   11.3826   -3.2139   -5.7846 C   0  0  0  0  0  0  0  0  0  0  0  0
   11.1963   -1.8674   -6.1239 C   0  0  0  0  0  0  0  0  0  0  0  0
   11.3485   -1.3746   -7.4152 N   0  0  0  0  0  0  0  0  0  0  0  0
   10.0894   -1.3901   -8.2012 C   0  0  0  0  0  0  0  0  0  0  0  0
   10.0582   -2.5052   -9.2388 C   0  0  0  0  0  0  0  0  0  0  0  0
    9.0109   -3.0689   -9.6052 O   0  0  0  0  0  0  0  0  0  0  0  0
   11.3461   -2.7592   -9.9944 C   0  0  0  0  0  0  0  0  0  0  0  0
   12.5597   -2.7739   -9.0854 C   0  0  0  0  0  0  0  0  0  0  0  0
   12.6012   -1.5241   -8.2003 C   0  0  0  0  0  0  0  0  0  0  0  0
   13.9374   -1.3883   -7.4114 C   0  0  0  0  0  0  0  0  0  0  0  0
   14.3651   -2.5953   -6.6897 N   0  0  0  0  0  0  0  0  0  0  0  0
   15.7709   -2.5092   -6.2604 C   0  0  0  0  0  0  0  0  0  0  0  0
   16.0305   -1.4583   -5.2251 C   0  0  0  0  0  0  0  0  0  0  0  0
   16.2454   -0.1640   -5.4354 N   0  0  0  0  0  0  0  0  0  0  0  0
   16.6339    0.3517   -4.2240 C   0  0  0  0  0  0  0  0  0  0  0  0
   17.0644    1.6504   -3.8964 C   0  0  0  0  0  0  0  0  0  0  0  0
   17.4606    1.9127   -2.5774 C   0  0  0  0  0  0  0  0  0  0  0  0
   17.4211    0.9076   -1.6043 C   0  0  0  0  0  0  0  0  0  0  0  0
   16.9838   -0.3909   -1.9123 C   0  0  0  0  0  0  0  0  0  0  0  0
   16.5968   -0.6289   -3.2362 C   0  0  0  0  0  0  0  0  0  0  0  0
   16.1505   -1.7559   -3.8885 N   0  0  0  0  0  0  0  0  0  0  0  0
  1  2  1  0
  2  3  1  0
  3  4  1  0
  4  5  1  0
  5  6  2  0
  6  7  1  0
  7  8  2  0
  8  9  1  0
  9 10  2  0
 10 11  1  0
 11 12  1  0
 12 13  1  0
 13 14  2  0
 13 15  1  0
 15 16  1  0
 16 17  1  0
 17 18  1  0
 18 19  1  0
 19 20  1  0
 20 21  1  0
 21 22  2  0
 22 23  1  0
 23 24  2  0
 24 25  1  0
 25 26  2  0
 26 27  1  0
 27 28  2  0
 28 29  1  0
 10  5  1  0
 17 11  1  0
 29 21  1  0
 28 23  1  0
M  END
$$$$
