
     RDKit          3D

 15 16  0  0  0  0  0  0  0  0999 V2000
  -43.5184   -8.9613   37.7831 N   0  0  0  0  0  0  0  0  0  0  0  0
  -44.6532   -9.3189   36.9404 C   0  0  0  0  0  0  0  0  0  0  0  0
  -44.5815  -10.7862   36.5178 C   0  0  0  0  0  0  0  0  0  0  0  0
  -45.7191  -11.1798   35.5775 C   0  0  0  0  0  0  0  0  0  0  0  0
  -47.0529  -11.2439   36.3029 C   0  0  0  0  0  0  0  0  0  0  0  0
  -47.2517  -12.1634   37.0998 O   0  0  0  0  0  0  0  0  0  0  0  0
  -48.0661  -10.2097   36.0632 C   0  0  0  0  0  0  0  0  0  0  0  0
  -47.9377   -9.0916   35.2554 C   0  0  0  0  0  0  0  0  0  0  0  0
  -49.1046   -8.3751   35.3096 N   0  0  0  0  0  0  0  0  0  0  0  0
  -50.0066   -8.9969   36.1371 C   0  0  0  0  0  0  0  0  0  0  0  0
  -51.3114   -8.6259   36.4851 C   0  0  0  0  0  0  0  0  0  0  0  0
  -52.0104   -9.4577   37.3638 C   0  0  0  0  0  0  0  0  0  0  0  0
  -51.4253  -10.6132   37.8728 C   0  0  0  0  0  0  0  0  0  0  0  0
  -50.1199  -10.9679   37.5137 C   0  0  0  0  0  0  0  0  0  0  0  0
  -49.3879  -10.1480   36.6273 C   0  0  0  0  0  0  0  0  0  0  0  0
  1  2  1  0
  2  3  1  0
  3  4  1  0
  4  5  1  0
  5  6  2  0
  5  7  1  0
  7  8  2  0
  8  9  1  0
  9 10  1  0
 10 11  2  0
 11 12  1  0
 12 13  2  0
 13 14  1  0
 14 15  2  0
 15  7  1  0
 15 10  1  0
M  END
$$$$
