
     RDKit          3D

 19 20  0  0  0  0  0  0  0  0999 V2000
  -12.2531   -3.4011   27.9938 N   0  0  0  0  0  0  0  0  0  0  0  0
  -11.7460   -3.9188   26.7283 C   0  0  0  0  0  0  0  0  0  0  0  0
  -11.7160   -2.8399   25.6561 C   0  0  0  0  0  0  0  0  0  0  0  0
  -13.1081   -2.4594   25.1959 C   0  0  0  0  0  0  0  0  0  0  0  0
  -13.8648   -3.2796   24.6722 O   0  0  0  0  0  0  0  0  0  0  0  0
  -13.5367   -1.0324   25.3857 C   0  0  0  0  0  0  0  0  0  0  0  0
  -13.9724   -0.7253   26.7915 C   0  0  0  0  0  0  0  0  0  0  0  0
  -13.1790   -0.2492   27.6065 O   0  0  0  0  0  0  0  0  0  0  0  0
  -15.4027   -1.0412   27.1682 C   0  0  0  0  0  0  0  0  0  0  0  0
  -15.4947   -2.3470   27.9433 C   0  0  0  0  0  0  0  0  0  0  0  0
  -16.9150   -2.7335   28.2080 C   0  0  0  0  0  0  0  0  0  0  0  0
  -17.6616   -2.4136   29.3247 C   0  0  0  0  0  0  0  0  0  0  0  0
  -18.9119   -2.9499   29.1731 N   0  0  0  0  0  0  0  0  0  0  0  0
  -19.0036   -3.6149   27.9728 C   0  0  0  0  0  0  0  0  0  0  0  0
  -20.0805   -4.3039   27.4019 C   0  0  0  0  0  0  0  0  0  0  0  0
  -19.8814   -4.8942   26.1503 C   0  0  0  0  0  0  0  0  0  0  0  0
  -18.6542   -4.7981   25.4987 C   0  0  0  0  0  0  0  0  0  0  0  0
  -17.5880   -4.1053   26.0837 C   0  0  0  0  0  0  0  0  0  0  0  0
  -17.7631   -3.5003   27.3455 C   0  0  0  0  0  0  0  0  0  0  0  0
  1  2  1  0
  2  3  1  0
  3  4  1  0
  4  5  2  0
  4  6  1  0
  6  7  1  0
  7  8  2  0
  7  9  1  0
  9 10  1  0
 10 11  1  0
 11 12  2  0
 12 13  1  0
 13 14  1  0
 14 15  2  0
 15 16  1  0
 16 17  2  0
 17 18  1  0
 18 19  2  0
 19 11  1  0
 19 14  1  0
M  END
$$$$
