
     RDKit          3D

 29 32  0  0  0  0  0  0  0  0999 V2000
   -9.6660    8.1472   15.8320 N   0  0  0  0  0  0  0  0  0  0  0  0
   -9.9669    8.0647   14.4009 C   0  0  0  0  0  0  0  0  0  0  0  0
   -9.9521    9.4287   13.7427 C   0  0  0  0  0  0  0  0  0  0  0  0
  -11.0165   10.3093   14.0425 C   0  0  0  0  0  0  0  0  0  0  0  0
  -11.1092   11.5621   13.4426 C   0  0  0  0  0  0  0  0  0  0  0  0
  -10.1327   11.9426   12.5303 C   0  0  0  0  0  0  0  0  0  0  0  0
  -10.2219   13.5206   11.7335 S   0  0  0  0  0  0  0  0  0  0  0  0
   -9.0285   14.3843   12.5482 N   0  0  0  0  0  0  0  0  0  0  0  0
  -11.4688   14.1528   12.0997 O   0  0  0  0  0  0  0  0  0  0  0  0
   -9.8037   13.3602   10.3620 O   0  0  0  0  0  0  0  0  0  0  0  0
   -9.0777   11.0827   12.2089 C   0  0  0  0  0  0  0  0  0  0  0  0
   -8.9581    9.8178   12.8134 C   0  0  0  0  0  0  0  0  0  0  0  0
   -7.8807    8.9830   12.5010 N   0  0  0  0  0  0  0  0  0  0  0  0
   -7.4550    8.9278   11.0973 C   0  0  0  0  0  0  0  0  0  0  0  0
   -6.8726    7.5433   10.8061 C   0  0  0  0  0  0  0  0  0  0  0  0
   -6.0315    6.9920   11.9580 C   0  0  0  0  0  0  0  0  0  0  0  0
   -5.5792    8.1022   12.8981 C   0  0  0  0  0  0  0  0  0  0  0  0
   -6.7842    8.8527   13.5134 C   0  0  0  0  0  0  0  0  0  0  0  0
   -6.3382   10.2081   14.1297 C   0  0  0  0  0  0  0  0  0  0  0  0
   -5.3971   10.0415   15.2374 N   0  0  0  0  0  0  0  0  0  0  0  0
   -4.0827   10.2322   15.0249 C   0  0  0  0  0  0  0  0  0  0  0  0
   -3.4796   10.6703   13.9466 N   0  0  0  0  0  0  0  0  0  0  0  0
   -2.1391   10.6690   14.2456 C   0  0  0  0  0  0  0  0  0  0  0  0
   -1.0416   11.0387   13.4553 C   0  0  0  0  0  0  0  0  0  0  0  0
    0.2435   10.9435   14.0048 C   0  0  0  0  0  0  0  0  0  0  0  0
    0.4311   10.4902   15.3134 C   0  0  0  0  0  0  0  0  0  0  0  0
   -0.6523   10.1168   16.1177 C   0  0  0  0  0  0  0  0  0  0  0  0
   -1.9204   10.2211   15.5432 C   0  0  0  0  0  0  0  0  0  0  0  0
   -3.1788    9.9531   16.0158 N   0  0  0  0  0  0  0  0  0  0  0  0
  1  2  1  0
  2  3  1  0
  3  4  2  0
  4  5  1  0
  5  6  2  0
  6  7  1  0
  7  8  1  0
  7  9  2  0
  7 10  2  0
  6 11  1  0
 11 12  2  0
 12 13  1  0
 13 14  1  0
 14 15  1  0
 15 16  1  0
 16 17  1  0
 17 18  1  0
 18 19  1  0
 19 20  1  0
 20 21  1  0
 21 22  2  0
 22 23  1  0
 23 24  2  0
 24 25  1  0
 25 26  2  0
 26 27  1  0
 27 28  2  0
 28 29  1  0
 12  3  1  0
 18 13  1  0
 29 21  1  0
 28 23  1  0
M  END
$$$$
