
     RDKit          3D

 19 20  0  0  0  0  0  0  0  0999 V2000
  -12.3315   -8.7393   20.6853 C   0  0  0  0  0  0  0  0  0  0  0  0
  -12.5882   -9.6519   19.6046 N   0  0  0  0  0  0  0  0  0  0  0  0
  -11.5462  -10.2419   18.9211 C   0  0  0  0  0  0  0  0  0  0  0  0
  -10.3677   -9.9300   19.0679 O   0  0  0  0  0  0  0  0  0  0  0  0
  -11.9973  -11.3126   17.9485 C   0  0  0  0  0  0  0  0  0  0  0  0
  -12.1544  -12.6696   18.5986 C   0  0  0  0  0  0  0  0  0  0  0  0
  -11.1087  -13.5991   18.4521 C   0  0  0  0  0  0  0  0  0  0  0  0
  -11.1937  -14.8755   19.0101 C   0  0  0  0  0  0  0  0  0  0  0  0
  -12.3305  -15.2450   19.7186 C   0  0  0  0  0  0  0  0  0  0  0  0
  -12.5576  -16.4647   20.2967 O   0  0  0  0  0  0  0  0  0  0  0  0
  -11.5201  -17.4309   20.1844 C   0  0  0  0  0  0  0  0  0  0  0  0
  -13.3679  -14.3194   19.8804 C   0  0  0  0  0  0  0  0  0  0  0  0
  -13.2951  -13.0156   19.3568 C   0  0  0  0  0  0  0  0  0  0  0  0
  -14.3422  -12.0749   19.5262 N   0  0  0  0  0  0  0  0  0  0  0  0
  -15.3813  -12.2578   18.4985 C   0  0  0  0  0  0  0  0  0  0  0  0
  -16.2150  -10.9763   18.4131 C   0  0  0  0  0  0  0  0  0  0  0  0
  -16.4304  -10.3050   19.7728 C   0  0  0  0  0  0  0  0  0  0  0  0
  -16.2576  -11.2905   20.9209 C   0  0  0  0  0  0  0  0  0  0  0  0
  -14.8830  -11.9738   20.9044 C   0  0  0  0  0  0  0  0  0  0  0  0
  1  2  1  0
  2  3  1  0
  3  4  2  0
  3  5  1  0
  5  6  1  0
  6  7  2  0
  7  8  1  0
  8  9  2  0
  9 10  1  0
 10 11  1  0
  9 12  1  0
 12 13  2  0
 13 14  1  0
 14 15  1  0
 15 16  1  0
 16 17  1  0
 17 18  1  0
 18 19  1  0
 13  6  1  0
 19 14  1  0
M  END
$$$$
