
     RDKit          3D

 28 31  0  0  0  0  0  0  0  0999 V2000
    3.0037   -0.5202  -26.2630 N   0  0  0  0  0  0  0  0  0  0  0  0
    1.9613   -1.1205  -25.6089 C   0  0  0  0  0  0  0  0  0  0  0  0
    1.5528   -0.7049  -24.5333 O   0  0  0  0  0  0  0  0  0  0  0  0
    1.3719   -2.2874  -26.3000 C   0  0  0  0  0  0  0  0  0  0  0  0
    0.8765   -2.0832  -27.5927 C   0  0  0  0  0  0  0  0  0  0  0  0
    0.3358   -3.1645  -28.2565 C   0  0  0  0  0  0  0  0  0  0  0  0
    0.2663   -4.4003  -27.7267 N   0  0  0  0  0  0  0  0  0  0  0  0
    0.7517   -4.5570  -26.4695 C   0  0  0  0  0  0  0  0  0  0  0  0
    1.3309   -3.5518  -25.6915 C   0  0  0  0  0  0  0  0  0  0  0  0
    1.8301   -3.7759  -24.4049 N   0  0  0  0  0  0  0  0  0  0  0  0
    0.8770   -3.4511  -23.3211 C   0  0  0  0  0  0  0  0  0  0  0  0
    0.2182   -4.7079  -22.7688 C   0  0  0  0  0  0  0  0  0  0  0  0
   -0.9482   -4.7221  -22.3711 O   0  0  0  0  0  0  0  0  0  0  0  0
    1.0690   -5.9569  -22.7066 C   0  0  0  0  0  0  0  0  0  0  0  0
    2.5398   -5.5992  -22.8612 C   0  0  0  0  0  0  0  0  0  0  0  0
    2.7845   -4.8907  -24.2047 C   0  0  0  0  0  0  0  0  0  0  0  0
    4.2409   -4.3534  -24.3128 C   0  0  0  0  0  0  0  0  0  0  0  0
    4.5456   -3.3450  -23.2907 N   0  0  0  0  0  0  0  0  0  0  0  0
    5.9259   -2.8735  -23.3475 C   0  0  0  0  0  0  0  0  0  0  0  0
    6.0640   -1.7174  -24.2869 C   0  0  0  0  0  0  0  0  0  0  0  0
    5.8563   -0.3858  -23.9702 C   0  0  0  0  0  0  0  0  0  0  0  0
    6.1568    0.3755  -25.0663 N   0  0  0  0  0  0  0  0  0  0  0  0
    6.5188   -0.4328  -26.1195 C   0  0  0  0  0  0  0  0  0  0  0  0
    6.8849   -0.0946  -27.4283 C   0  0  0  0  0  0  0  0  0  0  0  0
    7.2297   -1.1358  -28.2947 C   0  0  0  0  0  0  0  0  0  0  0  0
    7.2147   -2.4592  -27.8639 C   0  0  0  0  0  0  0  0  0  0  0  0
    6.8496   -2.7792  -26.5508 C   0  0  0  0  0  0  0  0  0  0  0  0
    6.4841   -1.7495  -25.6578 C   0  0  0  0  0  0  0  0  0  0  0  0
  1  2  1  0
  2  3  2  0
  2  4  1  0
  4  5  2  0
  5  6  1  0
  6  7  2  0
  7  8  1  0
  8  9  2  0
  9 10  1  0
 10 11  1  0
 11 12  1  0
 12 13  2  0
 12 14  1  0
 14 15  1  0
 15 16  1  0
 16 17  1  0
 17 18  1  0
 18 19  1  0
 19 20  1  0
 20 21  2  0
 21 22  1  0
 22 23  1  0
 23 24  2  0
 24 25  1  0
 25 26  2  0
 26 27  1  0
 27 28  2  0
  9  4  1  0
 16 10  1  0
 28 20  1  0
 28 23  1  0
M  END
$$$$
