
     RDKit          3D

 19 20  0  0  0  0  0  0  0  0999 V2000
    9.9537  -14.2194  -26.0829 N   0  0  0  0  0  0  0  0  0  0  0  0
    9.3144  -12.9046  -26.0945 C   0  0  0  0  0  0  0  0  0  0  0  0
    8.6645  -12.5576  -24.7624 C   0  0  0  0  0  0  0  0  0  0  0  0
    7.3353  -13.2589  -24.5695 C   0  0  0  0  0  0  0  0  0  0  0  0
    7.1773  -14.0759  -23.6590 O   0  0  0  0  0  0  0  0  0  0  0  0
    6.2220  -12.9297  -25.5497 C   0  0  0  0  0  0  0  0  0  0  0  0
    4.8445  -13.1242  -24.9304 C   0  0  0  0  0  0  0  0  0  0  0  0
    4.5748  -12.1278  -23.8164 C   0  0  0  0  0  0  0  0  0  0  0  0
    5.3084  -11.1546  -23.6284 O   0  0  0  0  0  0  0  0  0  0  0  0
    3.3410  -12.3726  -22.9680 C   0  0  0  0  0  0  0  0  0  0  0  0
    2.0907  -12.0890  -23.7296 C   0  0  0  0  0  0  0  0  0  0  0  0
    1.5511  -10.8419  -23.9713 C   0  0  0  0  0  0  0  0  0  0  0  0
    0.4115  -11.0011  -24.7108 N   0  0  0  0  0  0  0  0  0  0  0  0
    0.1981  -12.3296  -24.9740 C   0  0  0  0  0  0  0  0  0  0  0  0
   -0.8272  -12.9482  -25.6992 C   0  0  0  0  0  0  0  0  0  0  0  0
   -0.7927  -14.3438  -25.8141 C   0  0  0  0  0  0  0  0  0  0  0  0
    0.2274  -15.0841  -25.2252 C   0  0  0  0  0  0  0  0  0  0  0  0
    1.2420  -14.4495  -24.4982 C   0  0  0  0  0  0  0  0  0  0  0  0
    1.2316  -13.0421  -24.3680 C   0  0  0  0  0  0  0  0  0  0  0  0
  1  2  1  0
  2  3  1  0
  3  4  1  0
  4  5  2  0
  4  6  1  0
  6  7  1  0
  7  8  1  0
  8  9  2  0
  8 10  1  0
 10 11  1  0
 11 12  2  0
 12 13  1  0
 13 14  1  0
 14 15  2  0
 15 16  1  0
 16 17  2  0
 17 18  1  0
 18 19  2  0
 19 11  1  0
 19 14  1  0
M  END
$$$$
