
     RDKit          3D

 24 26  0  0  0  0  0  0  0  0999 V2000
  -18.3364    2.4016  -22.5203 N   0  0  0  0  0  0  0  0  0  0  0  0
  -17.4367    2.8286  -21.5846 C   0  0  0  0  0  0  0  0  0  0  0  0
  -16.2342    2.8551  -21.8067 O   0  0  0  0  0  0  0  0  0  0  0  0
  -18.0019    3.2549  -20.2797 C   0  0  0  0  0  0  0  0  0  0  0  0
  -18.9066    2.3788  -19.6531 C   0  0  0  0  0  0  0  0  0  0  0  0
  -19.4475    2.6924  -18.4061 C   0  0  0  0  0  0  0  0  0  0  0  0
  -19.0810    3.8774  -17.7782 C   0  0  0  0  0  0  0  0  0  0  0  0
  -19.7388    4.2663  -16.2373 Cl  0  0  0  0  0  0  0  0  0  0  0  0
  -18.1819    4.7531  -18.3891 C   0  0  0  0  0  0  0  0  0  0  0  0
  -17.6305    4.4643  -19.6565 C   0  0  0  0  0  0  0  0  0  0  0  0
  -16.6745    5.4789  -20.2608 C   0  0  0  0  0  0  0  0  0  0  0  0
  -16.8733    5.5884  -21.6616 O   0  0  0  0  0  0  0  0  0  0  0  0
  -15.2147    5.2512  -19.7937 C   0  0  0  0  0  0  0  0  0  0  0  0
  -14.7790    5.7945  -18.7747 O   0  0  0  0  0  0  0  0  0  0  0  0
  -14.4741    4.4348  -20.6151 N   0  0  0  0  0  0  0  0  0  0  0  0
  -13.1507    4.1586  -20.3921 C   0  0  0  0  0  0  0  0  0  0  0  0
  -12.4155    3.3588  -21.1284 N   0  0  0  0  0  0  0  0  0  0  0  0
  -11.1663    3.3781  -20.5549 C   0  0  0  0  0  0  0  0  0  0  0  0
   -9.9957    2.7035  -20.9306 C   0  0  0  0  0  0  0  0  0  0  0  0
   -8.8359    2.8951  -20.1683 C   0  0  0  0  0  0  0  0  0  0  0  0
   -8.8418    3.7403  -19.0552 C   0  0  0  0  0  0  0  0  0  0  0  0
  -10.0004    4.4222  -18.6645 C   0  0  0  0  0  0  0  0  0  0  0  0
  -11.1402    4.2130  -19.4430 C   0  0  0  0  0  0  0  0  0  0  0  0
  -12.4182    4.6969  -19.3641 N   0  0  0  0  0  0  0  0  0  0  0  0
  1  2  1  0
  2  3  2  0
  2  4  1  0
  4  5  2  0
  5  6  1  0
  6  7  2  0
  7  8  1  0
  7  9  1  0
  9 10  2  0
 10 11  1  0
 11 12  1  0
 11 13  1  0
 13 14  2  0
 13 15  1  0
 15 16  1  0
 16 17  2  0
 17 18  1  0
 18 19  2  0
 19 20  1  0
 20 21  2  0
 21 22  1  0
 22 23  2  0
 23 24  1  0
 10  4  1  0
 24 16  1  0
 23 18  1  0
M  END
$$$$
