
     RDKit          3D

 30 32  0  0  0  0  0  0  0  0999 V2000
  -15.7083    0.6352   16.5881 C   0  0  0  0  0  0  0  0  0  0  0  0
  -15.7647    0.3032   17.9708 O   0  0  0  0  0  0  0  0  0  0  0  0
  -15.0681   -0.8074   18.3696 C   0  0  0  0  0  0  0  0  0  0  0  0
  -14.6141   -1.8081   17.5073 C   0  0  0  0  0  0  0  0  0  0  0  0
  -13.9529   -2.9319   18.0115 C   0  0  0  0  0  0  0  0  0  0  0  0
  -13.7379   -3.0758   19.3857 C   0  0  0  0  0  0  0  0  0  0  0  0
  -13.0343   -4.2895   19.9367 C   0  0  0  0  0  0  0  0  0  0  0  0
  -13.9510   -5.1413   20.6816 N   0  0  0  0  0  0  0  0  0  0  0  0
  -14.2032   -2.0747   20.2486 C   0  0  0  0  0  0  0  0  0  0  0  0
  -14.8598   -0.9356   19.7533 C   0  0  0  0  0  0  0  0  0  0  0  0
  -15.3495    0.1122   20.7291 C   0  0  0  0  0  0  0  0  0  0  0  0
  -16.6954   -0.2176   21.3533 C   0  0  0  0  0  0  0  0  0  0  0  0
  -16.8014   -0.3525   22.5701 O   0  0  0  0  0  0  0  0  0  0  0  0
  -17.7192   -0.2979   20.4340 N   0  0  0  0  0  0  0  0  0  0  0  0
  -19.0935   -0.5281   20.6567 C   0  0  0  0  0  0  0  0  0  0  0  0
  -19.6594   -0.6066   21.9330 C   0  0  0  0  0  0  0  0  0  0  0  0
  -21.0363   -0.7690   22.0826 C   0  0  0  0  0  0  0  0  0  0  0  0
  -21.8440   -0.8436   20.9494 C   0  0  0  0  0  0  0  0  0  0  0  0
  -23.5863   -1.0687   21.1282 S   0  0  0  0  0  0  0  0  0  0  0  0
  -24.1517    0.5071   21.0065 N   0  0  0  0  0  0  0  0  0  0  0  0
  -23.8844   -1.4906   22.4767 O   0  0  0  0  0  0  0  0  0  0  0  0
  -24.0963   -1.7639   19.9681 O   0  0  0  0  0  0  0  0  0  0  0  0
  -21.2895   -0.7898   19.6658 C   0  0  0  0  0  0  0  0  0  0  0  0
  -19.9091   -0.6383   19.4955 C   0  0  0  0  0  0  0  0  0  0  0  0
  -19.3003   -0.6264   18.2273 N   0  0  0  0  0  0  0  0  0  0  0  0
  -18.7327   -1.9207   17.8149 C   0  0  0  0  0  0  0  0  0  0  0  0
  -19.7169   -2.7112   16.9581 C   0  0  0  0  0  0  0  0  0  0  0  0
  -20.1714   -1.8849   15.7597 C   0  0  0  0  0  0  0  0  0  0  0  0
  -20.7903   -0.5687   16.2160 C   0  0  0  0  0  0  0  0  0  0  0  0
  -19.8760    0.2051   17.1642 C   0  0  0  0  0  0  0  0  0  0  0  0
  1  2  1  0
  2  3  1  0
  3  4  2  0
  4  5  1  0
  5  6  2  0
  6  7  1  0
  7  8  1  0
  6  9  1  0
  9 10  2  0
 10 11  1  0
 11 12  1  0
 12 13  2  0
 12 14  1  0
 14 15  1  0
 15 16  2  0
 16 17  1  0
 17 18  2  0
 18 19  1  0
 19 20  1  0
 19 21  2  0
 19 22  2  0
 18 23  1  0
 23 24  2  0
 24 25  1  0
 25 26  1  0
 26 27  1  0
 27 28  1  0
 28 29  1  0
 29 30  1  0
 10  3  1  0
 24 15  1  0
 30 25  1  0
M  END
$$$$
