
     RDKit          3D

 26 28  0  0  0  0  0  0  0  0999 V2000
    8.0178    5.4772   -4.1318 C   0  0  0  0  0  0  0  0  0  0  0  0
    8.5648    6.4814   -5.0066 N   0  0  0  0  0  0  0  0  0  0  0  0
    9.5354    7.3539   -4.5695 C   0  0  0  0  0  0  0  0  0  0  0  0
   10.0550    7.2886   -3.4658 O   0  0  0  0  0  0  0  0  0  0  0  0
    9.9328    8.3823   -5.6073 C   0  0  0  0  0  0  0  0  0  0  0  0
    9.2335    9.7091   -5.4206 C   0  0  0  0  0  0  0  0  0  0  0  0
    9.8409   10.6504   -4.5713 C   0  0  0  0  0  0  0  0  0  0  0  0
    9.2588   11.8966   -4.3391 C   0  0  0  0  0  0  0  0  0  0  0  0
    8.0580   12.2234   -4.9560 C   0  0  0  0  0  0  0  0  0  0  0  0
    7.3858   13.4077   -4.8296 O   0  0  0  0  0  0  0  0  0  0  0  0
    8.0035   14.4103   -4.0322 C   0  0  0  0  0  0  0  0  0  0  0  0
    7.4388   11.2868   -5.7892 C   0  0  0  0  0  0  0  0  0  0  0  0
    7.9933   10.0150   -6.0258 C   0  0  0  0  0  0  0  0  0  0  0  0
    7.3740    9.0692   -6.8920 N   0  0  0  0  0  0  0  0  0  0  0  0
    7.8582    9.3340   -8.2745 C   0  0  0  0  0  0  0  0  0  0  0  0
    7.3424    8.3041   -9.2728 C   0  0  0  0  0  0  0  0  0  0  0  0
    7.8957    8.1492  -10.3776 O   0  0  0  0  0  0  0  0  0  0  0  0
    6.0151    7.6224   -8.9960 C   0  0  0  0  0  0  0  0  0  0  0  0
    5.5454    7.6591   -7.5435 C   0  0  0  0  0  0  0  0  0  0  0  0
    5.8852    9.0017   -6.8526 C   0  0  0  0  0  0  0  0  0  0  0  0
    5.1402    9.1725   -5.6046 N   0  0  0  0  0  0  0  0  0  0  0  0
    3.7425    9.5490   -5.7523 C   0  0  0  0  0  0  0  0  0  0  0  0
    3.2052   10.0541   -4.4144 C   0  0  0  0  0  0  0  0  0  0  0  0
    3.3757    9.0379   -3.2850 C   0  0  0  0  0  0  0  0  0  0  0  0
    4.2110    7.8343   -3.7051 C   0  0  0  0  0  0  0  0  0  0  0  0
    5.4393    8.2381   -4.5239 C   0  0  0  0  0  0  0  0  0  0  0  0
  1  2  1  0
  2  3  1  0
  3  4  2  0
  3  5  1  0
  5  6  1  0
  6  7  2  0
  7  8  1  0
  8  9  2  0
  9 10  1  0
 10 11  1  0
  9 12  1  0
 12 13  2  0
 13 14  1  0
 14 15  1  0
 15 16  1  0
 16 17  2  0
 16 18  1  0
 18 19  1  0
 19 20  1  0
 20 21  1  0
 21 22  1  0
 22 23  1  0
 23 24  1  0
 24 25  1  0
 25 26  1  0
 13  6  1  0
 20 14  1  0
 26 21  1  0
M  END
$$$$
