
     RDKit          3D

 23 25  0  0  0  0  0  0  0  0999 V2000
  -10.1596  -33.0673   33.5034 N   0  0  0  0  0  0  0  0  0  0  0  0
   -9.9913  -34.2510   32.6516 C   0  0  0  0  0  0  0  0  0  0  0  0
   -9.7345  -35.5088   33.5112 C   0  0  0  0  0  0  0  0  0  0  0  0
   -8.5843  -35.2323   34.3278 O   0  0  0  0  0  0  0  0  0  0  0  0
   -9.5043  -36.7845   32.6645 C   0  0  0  0  0  0  0  0  0  0  0  0
  -10.7246  -37.1717   31.8123 C   0  0  0  0  0  0  0  0  0  0  0  0
  -11.9158  -37.6396   32.6483 C   0  0  0  0  0  0  0  0  0  0  0  0
  -11.5116  -38.5032   33.8435 C   0  0  0  0  0  0  0  0  0  0  0  0
  -10.1151  -39.0822   33.6774 C   0  0  0  0  0  0  0  0  0  0  0  0
   -9.0566  -37.9759   33.5557 C   0  0  0  0  0  0  0  0  0  0  0  0
   -7.8984  -38.5821   32.9491 O   0  0  0  0  0  0  0  0  0  0  0  0
   -6.6938  -38.1458   33.6605 N   0  0  0  0  0  0  0  0  0  0  0  0
   -6.0565  -39.3869   34.1142 C   0  0  0  0  0  0  0  0  0  0  0  0
   -5.4468  -40.2077   32.9792 C   0  0  0  0  0  0  0  0  0  0  0  0
   -4.4513  -39.4001   32.1477 C   0  0  0  0  0  0  0  0  0  0  0  0
   -4.4441  -37.9184   32.5210 C   0  0  0  0  0  0  0  0  0  0  0  0
   -5.8856  -37.3858   32.6847 C   0  0  0  0  0  0  0  0  0  0  0  0
   -5.9863  -35.9624   33.0597 N   0  0  0  0  0  0  0  0  0  0  0  0
   -5.2294  -35.5845   34.2673 C   0  0  0  0  0  0  0  0  0  0  0  0
   -4.0167  -34.6988   33.9850 C   0  0  0  0  0  0  0  0  0  0  0  0
   -4.4189  -33.4146   33.2619 C   0  0  0  0  0  0  0  0  0  0  0  0
   -5.6280  -33.6147   32.3495 C   0  0  0  0  0  0  0  0  0  0  0  0
   -5.7628  -35.0716   31.9129 C   0  0  0  0  0  0  0  0  0  0  0  0
  1  2  1  0
  2  3  1  0
  3  4  1  0
  3  5  1  0
  5  6  1  0
  6  7  1  0
  7  8  1  0
  8  9  1  0
  9 10  1  0
 10 11  1  0
 11 12  1  0
 12 13  1  0
 13 14  1  0
 14 15  1  0
 15 16  1  0
 16 17  1  0
 17 18  1  0
 18 19  1  0
 19 20  1  0
 20 21  1  0
 21 22  1  0
 22 23  1  0
 10  5  1  0
 17 12  1  0
 23 18  1  0
M  END
$$$$
