
     RDKit          3D

 22 24  0  0  0  0  0  0  0  0999 V2000
  -31.5983   25.1242   -3.0232 N   0  0  0  0  0  0  0  0  0  0  0  0
  -30.1612   25.2048   -3.2937 C   0  0  0  0  0  0  0  0  0  0  0  0
  -29.8537   25.8920   -4.6308 C   0  0  0  0  0  0  0  0  0  0  0  0
  -30.0436   27.3922   -4.5915 C   0  0  0  0  0  0  0  0  0  0  0  0
  -31.2581   27.9458   -5.0163 C   0  0  0  0  0  0  0  0  0  0  0  0
  -31.4226   29.3199   -4.9672 C   0  0  0  0  0  0  0  0  0  0  0  0
  -30.4735   30.1716   -4.5302 N   0  0  0  0  0  0  0  0  0  0  0  0
  -29.3111   29.6163   -4.1095 C   0  0  0  0  0  0  0  0  0  0  0  0
  -29.0406   28.2498   -4.1147 C   0  0  0  0  0  0  0  0  0  0  0  0
  -27.8834   27.6575   -3.6903 O   0  0  0  0  0  0  0  0  0  0  0  0
  -26.8330   28.5127   -3.2553 C   0  0  0  0  0  0  0  0  0  0  0  0
  -25.6771   27.7274   -2.8509 N   0  0  0  0  0  0  0  0  0  0  0  0
  -25.0597   27.0693   -3.9988 C   0  0  0  0  0  0  0  0  0  0  0  0
  -23.9451   26.2118   -3.4905 C   0  0  0  0  0  0  0  0  0  0  0  0
  -24.0218   24.8666   -3.1751 C   0  0  0  0  0  0  0  0  0  0  0  0
  -22.7866   24.4495   -2.7590 N   0  0  0  0  0  0  0  0  0  0  0  0
  -21.8930   25.4935   -2.7950 C   0  0  0  0  0  0  0  0  0  0  0  0
  -20.5330   25.5288   -2.4634 C   0  0  0  0  0  0  0  0  0  0  0  0
  -19.8657   26.7503   -2.5929 C   0  0  0  0  0  0  0  0  0  0  0  0
  -20.5344   27.8893   -3.0339 C   0  0  0  0  0  0  0  0  0  0  0  0
  -21.8942   27.8356   -3.3614 C   0  0  0  0  0  0  0  0  0  0  0  0
  -22.5911   26.6150   -3.2442 C   0  0  0  0  0  0  0  0  0  0  0  0
  1  2  1  0
  2  3  1  0
  3  4  1  0
  4  5  2  0
  5  6  1  0
  6  7  2  0
  7  8  1  0
  8  9  2  0
  9 10  1  0
 10 11  1  0
 11 12  1  0
 12 13  1  0
 13 14  1  0
 14 15  2  0
 15 16  1  0
 16 17  1  0
 17 18  2  0
 18 19  1  0
 19 20  2  0
 20 21  1  0
 21 22  2  0
  9  4  1  0
 22 14  1  0
 22 17  1  0
M  END
$$$$
