
     RDKit          3D

 31 34  0  0  0  0  0  0  0  0999 V2000
    6.9800   20.6574  -21.5157 N   0  0  0  0  0  0  0  0  0  0  0  0
    6.1381   19.4880  -21.2794 C   0  0  0  0  0  0  0  0  0  0  0  0
    6.5430   18.3189  -22.1464 C   0  0  0  0  0  0  0  0  0  0  0  0
    6.0679   18.2899  -23.4745 C   0  0  0  0  0  0  0  0  0  0  0  0
    6.4206   17.2641  -24.3472 C   0  0  0  0  0  0  0  0  0  0  0  0
    7.2551   16.2563  -23.8957 C   0  0  0  0  0  0  0  0  0  0  0  0
    7.6371   15.2381  -24.7160 O   0  0  0  0  0  0  0  0  0  0  0  0
    7.7345   16.2581  -22.5909 C   0  0  0  0  0  0  0  0  0  0  0  0
    7.3961   17.2869  -21.6938 C   0  0  0  0  0  0  0  0  0  0  0  0
    7.8743   17.2907  -20.3571 N   0  0  0  0  0  0  0  0  0  0  0  0
    7.1524   16.3229  -19.5322 C   0  0  0  0  0  0  0  0  0  0  0  0
    6.7364   17.0371  -18.3857 O   0  0  0  0  0  0  0  0  0  0  0  0
    7.9854   15.1269  -19.1069 C   0  0  0  0  0  0  0  0  0  0  0  0
    9.2659   15.5901  -18.4675 C   0  0  0  0  0  0  0  0  0  0  0  0
    9.8788   14.8664  -17.6821 O   0  0  0  0  0  0  0  0  0  0  0  0
    9.7808   16.9624  -18.8179 C   0  0  0  0  0  0  0  0  0  0  0  0
    9.3678   17.2763  -20.2577 C   0  0  0  0  0  0  0  0  0  0  0  0
    9.9644   18.6463  -20.7037 C   0  0  0  0  0  0  0  0  0  0  0  0
   11.4330   18.6349  -20.8316 N   0  0  0  0  0  0  0  0  0  0  0  0
   11.9756   17.7365  -21.7860 C   0  0  0  0  0  0  0  0  0  0  0  0
   11.4992   17.6677  -23.0950 C   0  0  0  0  0  0  0  0  0  0  0  0
   12.0621   16.7432  -23.9587 C   0  0  0  0  0  0  0  0  0  0  0  0
   13.0629   15.9047  -23.6177 N   0  0  0  0  0  0  0  0  0  0  0  0
   13.5293   16.0063  -22.3481 C   0  0  0  0  0  0  0  0  0  0  0  0
   13.0453   16.8974  -21.3900 C   0  0  0  0  0  0  0  0  0  0  0  0
   13.5549   17.0048  -20.0726 N   0  0  0  0  0  0  0  0  0  0  0  0
   14.5622   18.0838  -19.9777 C   0  0  0  0  0  0  0  0  0  0  0  0
   15.7072   17.7215  -19.0310 C   0  0  0  0  0  0  0  0  0  0  0  0
   15.2001   17.1231  -17.7237 C   0  0  0  0  0  0  0  0  0  0  0  0
   14.1826   16.0008  -17.9432 C   0  0  0  0  0  0  0  0  0  0  0  0
   13.8971   15.7377  -19.4200 C   0  0  0  0  0  0  0  0  0  0  0  0
  1  2  1  0
  2  3  1  0
  3  4  2  0
  4  5  1  0
  5  6  2  0
  6  7  1  0
  6  8  1  0
  8  9  2  0
  9 10  1  0
 10 11  1  0
 11 12  1  0
 11 13  1  0
 13 14  1  0
 14 15  2  0
 14 16  1  0
 16 17  1  0
 17 18  1  0
 18 19  1  0
 19 20  1  0
 20 21  2  0
 21 22  1  0
 22 23  2  0
 23 24  1  0
 24 25  2  0
 25 26  1  0
 26 27  1  0
 27 28  1  0
 28 29  1  0
 29 30  1  0
 30 31  1  0
  9  3  1  0
 17 10  1  0
 25 20  1  0
 31 26  1  0
M  END
$$$$
