
     RDKit          3D

 27 30  0  0  0  0  0  0  0  0999 V2000
  -19.1890    7.7201   -5.2794 N   0  0  0  0  0  0  0  0  0  0  0  0
  -19.2999    7.8438   -6.6819 C   0  0  0  0  0  0  0  0  0  0  0  0
  -20.3923    8.5390   -7.2060 C   0  0  0  0  0  0  0  0  0  0  0  0
  -20.5509    8.5949   -8.5785 C   0  0  0  0  0  0  0  0  0  0  0  0
  -19.7239    7.9889   -9.4503 N   0  0  0  0  0  0  0  0  0  0  0  0
  -18.7017    7.2766   -8.9143 C   0  0  0  0  0  0  0  0  0  0  0  0
  -18.4272    7.1430   -7.5477 C   0  0  0  0  0  0  0  0  0  0  0  0
  -17.3593    6.3775   -7.0534 N   0  0  0  0  0  0  0  0  0  0  0  0
  -16.0567    6.4317   -7.7293 C   0  0  0  0  0  0  0  0  0  0  0  0
  -15.0458    7.3343   -6.9983 C   0  0  0  0  0  0  0  0  0  0  0  0
  -14.8369    7.0998   -5.5061 C   0  0  0  0  0  0  0  0  0  0  0  0
  -13.6191    7.7653   -5.0496 N   0  0  0  0  0  0  0  0  0  0  0  0
  -12.4355    7.1585   -5.2654 C   0  0  0  0  0  0  0  0  0  0  0  0
  -12.2026    5.9517   -5.7250 N   0  0  0  0  0  0  0  0  0  0  0  0
  -10.8349    5.8275   -5.7564 C   0  0  0  0  0  0  0  0  0  0  0  0
  -10.0399    4.7443   -6.1577 C   0  0  0  0  0  0  0  0  0  0  0  0
   -8.6461    4.8744   -6.0954 C   0  0  0  0  0  0  0  0  0  0  0  0
   -8.0567    6.0579   -5.6427 C   0  0  0  0  0  0  0  0  0  0  0  0
   -8.8338    7.1492   -5.2360 C   0  0  0  0  0  0  0  0  0  0  0  0
  -10.2193    6.9915   -5.3101 C   0  0  0  0  0  0  0  0  0  0  0  0
  -11.2659    7.8209   -5.0018 N   0  0  0  0  0  0  0  0  0  0  0  0
  -15.5387    5.0430   -8.1184 C   0  0  0  0  0  0  0  0  0  0  0  0
  -15.6439    3.9951   -7.0336 C   0  0  0  0  0  0  0  0  0  0  0  0
  -17.0575    3.9363   -6.5257 C   0  0  0  0  0  0  0  0  0  0  0  0
  -17.5949    2.8535   -6.2719 O   0  0  0  0  0  0  0  0  0  0  0  0
  -17.7321    5.2645   -6.1732 C   0  0  0  0  0  0  0  0  0  0  0  0
  -17.3762    5.6087   -4.8425 O   0  0  0  0  0  0  0  0  0  0  0  0
  1  2  1  0
  2  3  2  0
  3  4  1  0
  4  5  2  0
  5  6  1  0
  6  7  2  0
  7  8  1  0
  8  9  1  0
  9 10  1  0
 10 11  1  0
 11 12  1  0
 12 13  1  0
 13 14  2  0
 14 15  1  0
 15 16  2  0
 16 17  1  0
 17 18  2  0
 18 19  1  0
 19 20  2  0
 20 21  1  0
  9 22  1  0
 22 23  1  0
 23 24  1  0
 24 25  2  0
 24 26  1  0
 26 27  1  0
  7  2  1  0
 26  8  1  0
 21 13  1  0
 20 15  1  0
M  END
$$$$
