
     RDKit          3D

 16 17  0  0  0  0  0  0  0  0999 V2000
  -49.9872  -17.1001   -9.9891 N   0  0  0  0  0  0  0  0  0  0  0  0
  -51.2353  -17.1918   -9.2277 C   0  0  0  0  0  0  0  0  0  0  0  0
  -51.2565  -18.4975   -8.4428 C   0  0  0  0  0  0  0  0  0  0  0  0
  -50.7811  -18.5605   -7.3061 O   0  0  0  0  0  0  0  0  0  0  0  0
  -51.7940  -19.7181   -9.1666 C   0  0  0  0  0  0  0  0  0  0  0  0
  -52.2656  -20.8312   -8.2290 C   0  0  0  0  0  0  0  0  0  0  0  0
  -53.3763  -20.4303   -7.2491 C   0  0  0  0  0  0  0  0  0  0  0  0
  -54.5653  -19.8057   -7.9093 C   0  0  0  0  0  0  0  0  0  0  0  0
  -55.4962  -20.4489   -8.7018 C   0  0  0  0  0  0  0  0  0  0  0  0
  -56.4093  -19.5243   -9.1308 N   0  0  0  0  0  0  0  0  0  0  0  0
  -56.0967  -18.2803   -8.6352 C   0  0  0  0  0  0  0  0  0  0  0  0
  -56.7391  -17.0496   -8.8167 C   0  0  0  0  0  0  0  0  0  0  0  0
  -56.1964  -15.9336   -8.1730 C   0  0  0  0  0  0  0  0  0  0  0  0
  -55.0596  -16.0474   -7.3770 C   0  0  0  0  0  0  0  0  0  0  0  0
  -54.4303  -17.2856   -7.2065 C   0  0  0  0  0  0  0  0  0  0  0  0
  -54.9527  -18.4269   -7.8506 C   0  0  0  0  0  0  0  0  0  0  0  0
  1  2  1  0
  2  3  1  0
  3  4  2  0
  3  5  1  0
  5  6  1  0
  6  7  1  0
  7  8  1  0
  8  9  2  0
  9 10  1  0
 10 11  1  0
 11 12  2  0
 12 13  1  0
 13 14  2  0
 14 15  1  0
 15 16  2  0
 16  8  1  0
 16 11  1  0
M  END
$$$$
