
     RDKit          3D

 25 27  0  0  0  0  0  0  0  0999 V2000
   -8.2932  -17.2094   13.9284 C   0  0  0  0  0  0  0  0  0  0  0  0
   -7.3968  -17.5540   12.8723 O   0  0  0  0  0  0  0  0  0  0  0  0
   -6.9261  -16.4112   12.2679 C   0  0  0  0  0  0  0  0  0  0  0  0
   -5.8494  -15.7446   12.8564 C   0  0  0  0  0  0  0  0  0  0  0  0
   -5.3088  -14.6228   12.2336 C   0  0  0  0  0  0  0  0  0  0  0  0
   -5.8158  -14.1848   11.0039 C   0  0  0  0  0  0  0  0  0  0  0  0
   -5.2188  -12.9825   10.3200 C   0  0  0  0  0  0  0  0  0  0  0  0
   -5.7952  -11.7459   10.8333 N   0  0  0  0  0  0  0  0  0  0  0  0
   -6.8985  -14.8710   10.4228 C   0  0  0  0  0  0  0  0  0  0  0  0
   -7.4810  -15.9871   11.0428 C   0  0  0  0  0  0  0  0  0  0  0  0
   -8.5309  -16.7067   10.4677 N   0  0  0  0  0  0  0  0  0  0  0  0
   -8.0860  -17.5988    9.3907 C   0  0  0  0  0  0  0  0  0  0  0  0
   -8.9085  -18.7667    9.3376 O   0  0  0  0  0  0  0  0  0  0  0  0
   -8.6011  -19.6732   10.3898 C   0  0  0  0  0  0  0  0  0  0  0  0
   -8.2501  -16.8898    8.0395 C   0  0  0  0  0  0  0  0  0  0  0  0
   -7.3569  -16.8183    7.1934 O   0  0  0  0  0  0  0  0  0  0  0  0
   -9.6159  -16.2961    7.7894 C   0  0  0  0  0  0  0  0  0  0  0  0
  -10.0198  -15.4016    8.9580 C   0  0  0  0  0  0  0  0  0  0  0  0
   -9.8817  -16.1238   10.3271 C   0  0  0  0  0  0  0  0  0  0  0  0
  -10.5227  -15.3877   11.4374 N   0  0  0  0  0  0  0  0  0  0  0  0
   -9.9531  -14.0758   11.7598 C   0  0  0  0  0  0  0  0  0  0  0  0
  -10.9169  -13.1480   12.5166 C   0  0  0  0  0  0  0  0  0  0  0  0
  -11.7794  -13.9341   13.4917 C   0  0  0  0  0  0  0  0  0  0  0  0
  -12.5543  -15.0385   12.7716 C   0  0  0  0  0  0  0  0  0  0  0  0
  -11.9825  -15.3780   11.3891 C   0  0  0  0  0  0  0  0  0  0  0  0
  1  2  1  0
  2  3  1  0
  3  4  2  0
  4  5  1  0
  5  6  2  0
  6  7  1  0
  7  8  1  0
  6  9  1  0
  9 10  2  0
 10 11  1  0
 11 12  1  0
 12 13  1  0
 13 14  1  0
 12 15  1  0
 15 16  2  0
 15 17  1  0
 17 18  1  0
 18 19  1  0
 19 20  1  0
 20 21  1  0
 21 22  1  0
 22 23  1  0
 23 24  1  0
 24 25  1  0
 10  3  1  0
 19 11  1  0
 25 20  1  0
M  END
$$$$
