
     RDKit          3D

 26 28  0  0  0  0  0  0  0  0999 V2000
  -10.9135    2.2653   15.5002 C   0  0  0  0  0  0  0  0  0  0  0  0
  -10.9205    1.8050   14.1562 O   0  0  0  0  0  0  0  0  0  0  0  0
   -9.7162    1.4532   13.6092 C   0  0  0  0  0  0  0  0  0  0  0  0
   -8.4682    1.8060   14.1242 C   0  0  0  0  0  0  0  0  0  0  0  0
   -7.2934    1.4048   13.4740 C   0  0  0  0  0  0  0  0  0  0  0  0
   -7.3453    0.6560   12.2903 C   0  0  0  0  0  0  0  0  0  0  0  0
   -6.0842    0.2386   11.5794 C   0  0  0  0  0  0  0  0  0  0  0  0
   -5.9570   -1.2139   11.5349 N   0  0  0  0  0  0  0  0  0  0  0  0
   -8.5981    0.3100   11.7689 C   0  0  0  0  0  0  0  0  0  0  0  0
   -9.7661    0.6905   12.4346 C   0  0  0  0  0  0  0  0  0  0  0  0
  -10.9823    0.3301   11.9111 O   0  0  0  0  0  0  0  0  0  0  0  0
  -11.2485   -1.0497   12.1819 C   0  0  0  0  0  0  0  0  0  0  0  0
  -12.6877   -1.2274   12.3663 N   0  0  0  0  0  0  0  0  0  0  0  0
  -13.1188   -0.9056   13.6908 C   0  0  0  0  0  0  0  0  0  0  0  0
  -12.6588   -1.6253   14.7949 C   0  0  0  0  0  0  0  0  0  0  0  0
  -13.0763   -1.2383   16.0557 C   0  0  0  0  0  0  0  0  0  0  0  0
  -13.9142   -0.2076   16.2889 N   0  0  0  0  0  0  0  0  0  0  0  0
  -14.3783    0.4505   15.1972 C   0  0  0  0  0  0  0  0  0  0  0  0
  -14.0477    0.1466   13.8740 C   0  0  0  0  0  0  0  0  0  0  0  0
  -14.5595    0.8116   12.7388 N   0  0  0  0  0  0  0  0  0  0  0  0
  -15.6750    0.1022   12.0894 C   0  0  0  0  0  0  0  0  0  0  0  0
  -17.0098    0.4662   12.7378 C   0  0  0  0  0  0  0  0  0  0  0  0
  -17.2469    1.9694   12.7016 C   0  0  0  0  0  0  0  0  0  0  0  0
  -16.0733    2.6998   13.3137 C   0  0  0  0  0  0  0  0  0  0  0  0
  -16.2438    3.6492   14.0801 O   0  0  0  0  0  0  0  0  0  0  0  0
  -14.6910    2.2778   12.8349 C   0  0  0  0  0  0  0  0  0  0  0  0
  1  2  1  0
  2  3  1  0
  3  4  2  0
  4  5  1  0
  5  6  2  0
  6  7  1  0
  7  8  1  0
  6  9  1  0
  9 10  2  0
 10 11  1  0
 11 12  1  0
 12 13  1  0
 13 14  1  0
 14 15  2  0
 15 16  1  0
 16 17  2  0
 17 18  1  0
 18 19  2  0
 19 20  1  0
 20 21  1  0
 21 22  1  0
 22 23  1  0
 23 24  1  0
 24 25  2  0
 24 26  1  0
 10  3  1  0
 19 14  1  0
 26 20  1  0
M  END
$$$$
