
     RDKit          3D

 19 20  0  0  0  0  0  0  0  0999 V2000
   -7.1543  -25.2206  -13.5826 N   0  0  0  0  0  0  0  0  0  0  0  0
   -6.6473  -25.7383  -14.8481 C   0  0  0  0  0  0  0  0  0  0  0  0
   -6.6172  -24.6594  -15.9203 C   0  0  0  0  0  0  0  0  0  0  0  0
   -8.0093  -24.2789  -16.3805 C   0  0  0  0  0  0  0  0  0  0  0  0
   -8.7661  -25.0991  -16.9042 O   0  0  0  0  0  0  0  0  0  0  0  0
   -8.4380  -22.8519  -16.1907 C   0  0  0  0  0  0  0  0  0  0  0  0
   -8.8737  -22.5448  -14.7849 C   0  0  0  0  0  0  0  0  0  0  0  0
   -8.0802  -22.0687  -13.9700 O   0  0  0  0  0  0  0  0  0  0  0  0
  -10.3039  -22.8607  -14.4082 C   0  0  0  0  0  0  0  0  0  0  0  0
  -10.3959  -24.1665  -13.6332 C   0  0  0  0  0  0  0  0  0  0  0  0
  -11.8162  -24.5530  -13.3684 C   0  0  0  0  0  0  0  0  0  0  0  0
  -12.5628  -24.2331  -12.2517 C   0  0  0  0  0  0  0  0  0  0  0  0
  -13.8131  -24.7694  -12.4034 N   0  0  0  0  0  0  0  0  0  0  0  0
  -13.9049  -25.4344  -13.6036 C   0  0  0  0  0  0  0  0  0  0  0  0
  -14.9818  -26.1234  -14.1745 C   0  0  0  0  0  0  0  0  0  0  0  0
  -14.7826  -26.7137  -15.4261 C   0  0  0  0  0  0  0  0  0  0  0  0
  -13.5554  -26.6176  -16.0777 C   0  0  0  0  0  0  0  0  0  0  0  0
  -12.4892  -25.9248  -15.4928 C   0  0  0  0  0  0  0  0  0  0  0  0
  -12.6643  -25.3198  -14.2310 C   0  0  0  0  0  0  0  0  0  0  0  0
  1  2  1  0
  2  3  1  0
  3  4  1  0
  4  5  2  0
  4  6  1  0
  6  7  1  0
  7  8  2  0
  7  9  1  0
  9 10  1  0
 10 11  1  0
 11 12  2  0
 12 13  1  0
 13 14  1  0
 14 15  2  0
 15 16  1  0
 16 17  2  0
 17 18  1  0
 18 19  2  0
 19 11  1  0
 19 14  1  0
M  END
$$$$
