
     RDKit          3D

 23 25  0  0  0  0  0  0  0  0999 V2000
    0.2997  -45.6565  -43.5745 N   0  0  0  0  0  0  0  0  0  0  0  0
    0.7230  -46.3767  -42.4891 C   0  0  0  0  0  0  0  0  0  0  0  0
    1.2256  -47.4875  -42.6253 O   0  0  0  0  0  0  0  0  0  0  0  0
    0.4907  -45.7947  -41.1314 C   0  0  0  0  0  0  0  0  0  0  0  0
    0.3765  -46.7367  -40.0849 C   0  0  0  0  0  0  0  0  0  0  0  0
    0.1443  -46.3264  -38.7737 C   0  0  0  0  0  0  0  0  0  0  0  0
    0.0280  -44.9715  -38.5042 C   0  0  0  0  0  0  0  0  0  0  0  0
   -0.1839  -44.5650  -37.2453 F   0  0  0  0  0  0  0  0  0  0  0  0
    0.1525  -44.0198  -39.5160 C   0  0  0  0  0  0  0  0  0  0  0  0
    0.3928  -44.4053  -40.8527 C   0  0  0  0  0  0  0  0  0  0  0  0
    0.5629  -43.4224  -41.8688 N   0  0  0  0  0  0  0  0  0  0  0  0
   -0.6568  -42.5654  -41.9565 C   0  0  0  0  0  0  0  0  0  0  0  0
   -0.5549  -41.5771  -43.1054 C   0  0  0  0  0  0  0  0  0  0  0  0
   -1.5237  -41.3079  -43.8170 O   0  0  0  0  0  0  0  0  0  0  0  0
    0.7444  -40.8180  -43.2117 C   0  0  0  0  0  0  0  0  0  0  0  0
    1.9189  -41.7744  -43.0635 C   0  0  0  0  0  0  0  0  0  0  0  0
    1.8303  -42.6328  -41.7628 C   0  0  0  0  0  0  0  0  0  0  0  0
    3.1802  -43.1963  -41.5575 N   0  0  0  0  0  0  0  0  0  0  0  0
    3.6014  -44.2141  -42.5268 C   0  0  0  0  0  0  0  0  0  0  0  0
    5.1077  -44.4876  -42.4058 C   0  0  0  0  0  0  0  0  0  0  0  0
    5.5097  -44.8560  -40.9815 C   0  0  0  0  0  0  0  0  0  0  0  0
    4.9540  -43.8430  -39.9838 C   0  0  0  0  0  0  0  0  0  0  0  0
    3.4509  -43.6407  -40.1896 C   0  0  0  0  0  0  0  0  0  0  0  0
  1  2  1  0
  2  3  2  0
  2  4  1  0
  4  5  2  0
  5  6  1  0
  6  7  2  0
  7  8  1  0
  7  9  1  0
  9 10  2  0
 10 11  1  0
 11 12  1  0
 12 13  1  0
 13 14  2  0
 13 15  1  0
 15 16  1  0
 16 17  1  0
 17 18  1  0
 18 19  1  0
 19 20  1  0
 20 21  1  0
 21 22  1  0
 22 23  1  0
 10  4  1  0
 17 11  1  0
 23 18  1  0
M  END
$$$$
