
     RDKit          3D

 29 32  0  0  0  0  0  0  0  0999 V2000
  -30.9448   18.1860   29.8867 N   0  0  0  0  0  0  0  0  0  0  0  0
  -31.2456   18.1035   28.4556 C   0  0  0  0  0  0  0  0  0  0  0  0
  -31.2309   19.4675   27.7974 C   0  0  0  0  0  0  0  0  0  0  0  0
  -32.2953   20.3481   28.0972 C   0  0  0  0  0  0  0  0  0  0  0  0
  -32.3879   21.6008   27.4973 C   0  0  0  0  0  0  0  0  0  0  0  0
  -31.4115   21.9814   26.5850 C   0  0  0  0  0  0  0  0  0  0  0  0
  -31.5006   23.5594   25.7882 S   0  0  0  0  0  0  0  0  0  0  0  0
  -30.3073   24.4231   26.6029 N   0  0  0  0  0  0  0  0  0  0  0  0
  -32.7476   24.1916   26.1544 O   0  0  0  0  0  0  0  0  0  0  0  0
  -31.0825   23.3990   24.4167 O   0  0  0  0  0  0  0  0  0  0  0  0
  -30.3565   21.1215   26.2636 C   0  0  0  0  0  0  0  0  0  0  0  0
  -30.2369   19.8566   26.8681 C   0  0  0  0  0  0  0  0  0  0  0  0
  -29.1595   19.0218   26.5557 N   0  0  0  0  0  0  0  0  0  0  0  0
  -28.7337   18.9666   25.1520 C   0  0  0  0  0  0  0  0  0  0  0  0
  -28.1514   17.5821   24.8608 C   0  0  0  0  0  0  0  0  0  0  0  0
  -27.3103   17.0308   26.0127 C   0  0  0  0  0  0  0  0  0  0  0  0
  -26.8580   18.1410   26.9528 C   0  0  0  0  0  0  0  0  0  0  0  0
  -28.0630   18.8915   27.5681 C   0  0  0  0  0  0  0  0  0  0  0  0
  -27.6170   20.2469   28.1844 C   0  0  0  0  0  0  0  0  0  0  0  0
  -26.6759   20.0803   29.2921 N   0  0  0  0  0  0  0  0  0  0  0  0
  -25.3615   20.2710   29.0796 C   0  0  0  0  0  0  0  0  0  0  0  0
  -24.7584   20.7091   28.0013 N   0  0  0  0  0  0  0  0  0  0  0  0
  -23.4179   20.7078   28.3003 C   0  0  0  0  0  0  0  0  0  0  0  0
  -22.3204   21.0775   27.5100 C   0  0  0  0  0  0  0  0  0  0  0  0
  -21.0353   20.9823   28.0595 C   0  0  0  0  0  0  0  0  0  0  0  0
  -20.8476   20.5290   29.3681 C   0  0  0  0  0  0  0  0  0  0  0  0
  -21.9311   20.1556   30.1723 C   0  0  0  0  0  0  0  0  0  0  0  0
  -23.1992   20.2599   29.5979 C   0  0  0  0  0  0  0  0  0  0  0  0
  -24.4576   19.9919   30.0705 N   0  0  0  0  0  0  0  0  0  0  0  0
  1  2  1  0
  2  3  1  0
  3  4  2  0
  4  5  1  0
  5  6  2  0
  6  7  1  0
  7  8  1  0
  7  9  2  0
  7 10  2  0
  6 11  1  0
 11 12  2  0
 12 13  1  0
 13 14  1  0
 14 15  1  0
 15 16  1  0
 16 17  1  0
 17 18  1  0
 18 19  1  0
 19 20  1  0
 20 21  1  0
 21 22  2  0
 22 23  1  0
 23 24  2  0
 24 25  1  0
 25 26  2  0
 26 27  1  0
 27 28  2  0
 28 29  1  0
 12  3  1  0
 18 13  1  0
 29 21  1  0
 28 23  1  0
M  END
$$$$
