
     RDKit          3D

 19 20  0  0  0  0  0  0  0  0999 V2000
   -1.2089    0.5197   -7.7593 C   0  0  0  0  0  0  0  0  0  0  0  0
   -0.4886    0.5263   -9.0266 N   0  0  0  0  0  0  0  0  0  0  0  0
    0.8798   -0.0182   -8.8913 C   0  0  0  0  0  0  0  0  0  0  0  0
    0.9150   -1.5648   -8.7585 C   0  0  0  0  0  0  0  0  0  0  0  0
    2.3556   -2.0895   -8.7539 C   0  0  0  0  0  0  0  0  0  0  0  0
    2.9784   -2.0184   -7.3715 C   0  0  0  0  0  0  0  0  0  0  0  0
    2.6020   -1.1947   -6.5296 O   0  0  0  0  0  0  0  0  0  0  0  0
    4.0543   -3.0358   -7.0384 C   0  0  0  0  0  0  0  0  0  0  0  0
    5.1724   -3.0437   -8.0276 C   0  0  0  0  0  0  0  0  0  0  0  0
    5.4722   -4.0566   -8.9190 C   0  0  0  0  0  0  0  0  0  0  0  0
    6.5925   -3.6927   -9.6199 N   0  0  0  0  0  0  0  0  0  0  0  0
    7.0123   -2.4436   -9.2331 C   0  0  0  0  0  0  0  0  0  0  0  0
    8.0912   -1.6740   -9.6856 C   0  0  0  0  0  0  0  0  0  0  0  0
    8.2917   -0.4260   -9.0890 C   0  0  0  0  0  0  0  0  0  0  0  0
    7.4483    0.0302   -8.0789 C   0  0  0  0  0  0  0  0  0  0  0  0
    6.3729   -0.7521   -7.6389 C   0  0  0  0  0  0  0  0  0  0  0  0
    6.1467   -2.0137   -8.2271 C   0  0  0  0  0  0  0  0  0  0  0  0
    0.2138   -2.1097   -9.8985 O   0  0  0  0  0  0  0  0  0  0  0  0
   -0.4062   -3.3620   -9.6268 C   0  0  0  0  0  0  0  0  0  0  0  0
  1  2  1  0
  2  3  1  0
  3  4  1  0
  4  5  1  0
  5  6  1  0
  6  7  2  0
  6  8  1  0
  8  9  1  0
  9 10  2  0
 10 11  1  0
 11 12  1  0
 12 13  2  0
 13 14  1  0
 14 15  2  0
 15 16  1  0
 16 17  2  0
  4 18  1  0
 18 19  1  0
 17  9  1  0
 17 12  1  0
M  END
$$$$
