
     RDKit          3D

 26 28  0  0  0  0  0  0  0  0999 V2000
   25.6013  -53.5312  -46.2269 C   0  0  0  0  0  0  0  0  0  0  0  0
   26.1483  -52.5271  -47.1017 N   0  0  0  0  0  0  0  0  0  0  0  0
   27.1189  -51.6545  -46.6646 C   0  0  0  0  0  0  0  0  0  0  0  0
   27.6386  -51.7199  -45.5609 O   0  0  0  0  0  0  0  0  0  0  0  0
   27.5163  -50.6262  -47.7024 C   0  0  0  0  0  0  0  0  0  0  0  0
   26.8170  -49.2994  -47.5157 C   0  0  0  0  0  0  0  0  0  0  0  0
   27.4244  -48.3580  -46.6664 C   0  0  0  0  0  0  0  0  0  0  0  0
   26.8423  -47.1118  -46.4342 C   0  0  0  0  0  0  0  0  0  0  0  0
   25.6416  -46.7850  -47.0511 C   0  0  0  0  0  0  0  0  0  0  0  0
   24.9693  -45.6008  -46.9246 O   0  0  0  0  0  0  0  0  0  0  0  0
   25.5870  -44.5981  -46.1273 C   0  0  0  0  0  0  0  0  0  0  0  0
   25.0224  -47.7216  -47.8843 C   0  0  0  0  0  0  0  0  0  0  0  0
   25.5769  -48.9934  -48.1209 C   0  0  0  0  0  0  0  0  0  0  0  0
   24.9575  -49.9393  -48.9871 N   0  0  0  0  0  0  0  0  0  0  0  0
   25.4418  -49.6745  -50.3696 C   0  0  0  0  0  0  0  0  0  0  0  0
   24.9260  -50.7043  -51.3679 C   0  0  0  0  0  0  0  0  0  0  0  0
   25.4792  -50.8592  -52.4727 O   0  0  0  0  0  0  0  0  0  0  0  0
   23.5986  -51.3860  -51.0911 C   0  0  0  0  0  0  0  0  0  0  0  0
   23.1289  -51.3493  -49.6386 C   0  0  0  0  0  0  0  0  0  0  0  0
   23.4688  -50.0068  -48.9477 C   0  0  0  0  0  0  0  0  0  0  0  0
   22.7237  -49.8359  -47.6997 N   0  0  0  0  0  0  0  0  0  0  0  0
   21.3260  -49.4594  -47.8474 C   0  0  0  0  0  0  0  0  0  0  0  0
   20.7887  -48.9543  -46.5095 C   0  0  0  0  0  0  0  0  0  0  0  0
   20.9592  -49.9705  -45.3801 C   0  0  0  0  0  0  0  0  0  0  0  0
   21.7945  -51.1741  -45.8001 C   0  0  0  0  0  0  0  0  0  0  0  0
   23.0228  -50.7704  -46.6190 C   0  0  0  0  0  0  0  0  0  0  0  0
  1  2  1  0
  2  3  1  0
  3  4  2  0
  3  5  1  0
  5  6  1  0
  6  7  2  0
  7  8  1  0
  8  9  2  0
  9 10  1  0
 10 11  1  0
  9 12  1  0
 12 13  2  0
 13 14  1  0
 14 15  1  0
 15 16  1  0
 16 17  2  0
 16 18  1  0
 18 19  1  0
 19 20  1  0
 20 21  1  0
 21 22  1  0
 22 23  1  0
 23 24  1  0
 24 25  1  0
 25 26  1  0
 13  6  1  0
 20 14  1  0
 26 21  1  0
M  END
$$$$
