
     RDKit          3D

 16 17  0  0  0  0  0  0  0  0999 V2000
   17.6073   16.6882   15.2586 N   0  0  0  0  0  0  0  0  0  0  0  0
   18.1689   15.5974   16.0438 C   0  0  0  0  0  0  0  0  0  0  0  0
   17.0725   14.9098   16.8542 C   0  0  0  0  0  0  0  0  0  0  0  0
   17.6550   13.8277   17.7543 C   0  0  0  0  0  0  0  0  0  0  0  0
   16.5875   12.9391   18.3625 C   0  0  0  0  0  0  0  0  0  0  0  0
   16.5388   11.7395   18.0754 O   0  0  0  0  0  0  0  0  0  0  0  0
   15.6118   13.5634   19.3433 C   0  0  0  0  0  0  0  0  0  0  0  0
   14.3060   13.9068   18.7053 C   0  0  0  0  0  0  0  0  0  0  0  0
   13.4391   13.0209   18.0932 C   0  0  0  0  0  0  0  0  0  0  0  0
   12.3542   13.7173   17.6386 N   0  0  0  0  0  0  0  0  0  0  0  0
   12.4818   15.0500   17.9498 C   0  0  0  0  0  0  0  0  0  0  0  0
   11.6195   16.1214   17.6871 C   0  0  0  0  0  0  0  0  0  0  0  0
   12.0074   17.3893   18.1279 C   0  0  0  0  0  0  0  0  0  0  0  0
   13.2091   17.5749   18.8056 C   0  0  0  0  0  0  0  0  0  0  0  0
   14.0588   16.4920   19.0612 C   0  0  0  0  0  0  0  0  0  0  0  0
   13.6942   15.2009   18.6246 C   0  0  0  0  0  0  0  0  0  0  0  0
  1  2  1  0
  2  3  1  0
  3  4  1  0
  4  5  1  0
  5  6  2  0
  5  7  1  0
  7  8  1  0
  8  9  2  0
  9 10  1  0
 10 11  1  0
 11 12  2  0
 12 13  1  0
 13 14  2  0
 14 15  1  0
 15 16  2  0
 16  8  1  0
 16 11  1  0
M  END
$$$$
