
     RDKit          3D

 27 29  0  0  0  0  0  0  0  0999 V2000
   20.3608    1.4989  -31.6279 N   0  0  0  0  0  0  0  0  0  0  0  0
   21.1161    0.7246  -30.6271 C   0  0  0  0  0  0  0  0  0  0  0  0
   20.3992   -0.5872  -30.3453 C   0  0  0  0  0  0  0  0  0  0  0  0
   19.1743   -0.6891  -30.4697 O   0  0  0  0  0  0  0  0  0  0  0  0
   21.1777   -1.7840  -29.9097 C   0  0  0  0  0  0  0  0  0  0  0  0
   20.6396   -3.0237  -30.3167 C   0  0  0  0  0  0  0  0  0  0  0  0
   21.2145   -4.2265  -29.9143 C   0  0  0  0  0  0  0  0  0  0  0  0
   22.3164   -4.1896  -29.0786 C   0  0  0  0  0  0  0  0  0  0  0  0
   22.9067   -5.3327  -28.6278 O   0  0  0  0  0  0  0  0  0  0  0  0
   22.8552   -2.9748  -28.6587 C   0  0  0  0  0  0  0  0  0  0  0  0
   22.3249   -1.7401  -29.0836 C   0  0  0  0  0  0  0  0  0  0  0  0
   22.8746   -0.5288  -28.6216 N   0  0  0  0  0  0  0  0  0  0  0  0
   22.7053   -0.3371  -27.1610 C   0  0  0  0  0  0  0  0  0  0  0  0
   23.0662    1.0860  -26.7554 C   0  0  0  0  0  0  0  0  0  0  0  0
   22.4687    1.6782  -25.8552 O   0  0  0  0  0  0  0  0  0  0  0  0
   24.2945    1.6910  -27.3983 C   0  0  0  0  0  0  0  0  0  0  0  0
   24.3128    1.4047  -28.8941 C   0  0  0  0  0  0  0  0  0  0  0  0
   24.1811   -0.1018  -29.1999 C   0  0  0  0  0  0  0  0  0  0  0  0
   25.3887   -0.9375  -28.7279 C   0  0  0  0  0  0  0  0  0  0  0  0
   26.7356   -0.4255  -29.2514 C   0  0  0  0  0  0  0  0  0  0  0  0
   27.7907   -1.3527  -28.8533 N   0  0  0  0  0  0  0  0  0  0  0  0
   29.1105   -1.1200  -29.2620 C   0  0  0  0  0  0  0  0  0  0  0  0
   30.0416   -2.1540  -29.1270 C   0  0  0  0  0  0  0  0  0  0  0  0
   31.3682   -1.9266  -29.4632 C   0  0  0  0  0  0  0  0  0  0  0  0
   31.8373   -0.7427  -29.9024 N   0  0  0  0  0  0  0  0  0  0  0  0
   30.9385    0.2579  -29.9865 C   0  0  0  0  0  0  0  0  0  0  0  0
   29.5926    0.1230  -29.6710 C   0  0  0  0  0  0  0  0  0  0  0  0
  1  2  1  0
  2  3  1  0
  3  4  2  0
  3  5  1  0
  5  6  2  0
  6  7  1  0
  7  8  2  0
  8  9  1  0
  8 10  1  0
 10 11  2  0
 11 12  1  0
 12 13  1  0
 13 14  1  0
 14 15  2  0
 14 16  1  0
 16 17  1  0
 17 18  1  0
 18 19  1  0
 19 20  1  0
 20 21  1  0
 21 22  1  0
 22 23  2  0
 23 24  1  0
 24 25  2  0
 25 26  1  0
 26 27  2  0
 11  5  1  0
 18 12  1  0
 27 22  1  0
M  END
$$$$
