
     RDKit          3D

 31 34  0  0  0  0  0  0  0  0999 V2000
  -41.7244  -17.2274   19.6004 C   0  0  0  0  0  0  0  0  0  0  0  0
  -40.4160  -17.7637   19.4504 O   0  0  0  0  0  0  0  0  0  0  0  0
  -39.3954  -16.8672   19.2883 C   0  0  0  0  0  0  0  0  0  0  0  0
  -39.5057  -15.4844   19.3285 C   0  0  0  0  0  0  0  0  0  0  0  0
  -38.3721  -14.6877   19.1392 C   0  0  0  0  0  0  0  0  0  0  0  0
  -37.1034  -15.2531   18.9013 C   0  0  0  0  0  0  0  0  0  0  0  0
  -35.8770  -14.3893   18.6731 C   0  0  0  0  0  0  0  0  0  0  0  0
  -36.1378  -12.9829   18.3563 N   0  0  0  0  0  0  0  0  0  0  0  0
  -36.9787  -16.6647   18.8884 C   0  0  0  0  0  0  0  0  0  0  0  0
  -35.7146  -17.2679   18.7088 N   0  0  0  0  0  0  0  0  0  0  0  0
  -35.6401  -18.3120   17.6701 C   0  0  0  0  0  0  0  0  0  0  0  0
  -35.0334  -19.6257   18.1647 C   0  0  0  0  0  0  0  0  0  0  0  0
  -35.5389  -20.0179   19.5476 C   0  0  0  0  0  0  0  0  0  0  0  0
  -35.4528  -18.8775   20.5707 C   0  0  0  0  0  0  0  0  0  0  0  0
  -35.0025  -17.5404   19.9646 C   0  0  0  0  0  0  0  0  0  0  0  0
  -33.5913  -17.6451   19.7416 O   0  0  0  0  0  0  0  0  0  0  0  0
  -32.9848  -16.4136   19.3459 C   0  0  0  0  0  0  0  0  0  0  0  0
  -31.4676  -16.6234   19.2236 C   0  0  0  0  0  0  0  0  0  0  0  0
  -31.1713  -17.5801   18.1490 N   0  0  0  0  0  0  0  0  0  0  0  0
  -29.7364  -17.8324   17.9804 C   0  0  0  0  0  0  0  0  0  0  0  0
  -29.0593  -18.6036   19.1257 C   0  0  0  0  0  0  0  0  0  0  0  0
  -28.1905  -17.7232   19.9806 C   0  0  0  0  0  0  0  0  0  0  0  0
  -28.6292  -17.3827   21.2321 N   0  0  0  0  0  0  0  0  0  0  0  0
  -27.8500  -16.5872   22.0004 C   0  0  0  0  0  0  0  0  0  0  0  0
  -26.6484  -16.0566   21.6986 N   0  0  0  0  0  0  0  0  0  0  0  0
  -26.2664  -16.4253   20.4672 C   0  0  0  0  0  0  0  0  0  0  0  0
  -25.1104  -16.0785   19.8308 N   0  0  0  0  0  0  0  0  0  0  0  0
  -25.1260  -16.6719   18.5975 C   0  0  0  0  0  0  0  0  0  0  0  0
  -26.2230  -17.3742   18.4038 N   0  0  0  0  0  0  0  0  0  0  0  0
  -26.9465  -17.2282   19.5672 C   0  0  0  0  0  0  0  0  0  0  0  0
  -38.1397  -17.4409   19.0760 C   0  0  0  0  0  0  0  0  0  0  0  0
  1  2  1  0
  2  3  1  0
  3  4  2  0
  4  5  1  0
  5  6  2  0
  6  7  1  0
  7  8  1  0
  6  9  1  0
  9 10  1  0
 10 11  1  0
 11 12  1  0
 12 13  1  0
 13 14  1  0
 14 15  1  0
 15 16  1  0
 16 17  1  0
 17 18  1  0
 18 19  1  0
 19 20  1  0
 20 21  1  0
 21 22  1  0
 22 23  2  0
 23 24  1  0
 24 25  2  0
 25 26  1  0
 26 27  1  0
 27 28  1  0
 28 29  2  0
 29 30  1  0
  9 31  2  0
 31  3  1  0
 15 10  1  0
 30 22  1  0
 30 26  2  0
M  END
$$$$
