
     RDKit          3D

 28 31  0  0  0  0  0  0  0  0999 V2000
  -15.5220   -6.4155   16.3062 N   0  0  0  0  0  0  0  0  0  0  0  0
  -14.7290   -6.5862   15.1323 C   0  0  0  0  0  0  0  0  0  0  0  0
  -14.3181   -5.4592   14.4261 C   0  0  0  0  0  0  0  0  0  0  0  0
  -13.4598   -5.6375   13.3569 C   0  0  0  0  0  0  0  0  0  0  0  0
  -12.9545   -6.8368   12.9875 N   0  0  0  0  0  0  0  0  0  0  0  0
  -13.3256   -7.9083   13.7353 C   0  0  0  0  0  0  0  0  0  0  0  0
  -14.1946   -7.8602   14.8278 C   0  0  0  0  0  0  0  0  0  0  0  0
  -14.5591   -8.9642   15.6278 N   0  0  0  0  0  0  0  0  0  0  0  0
  -14.7502  -10.2271   14.8771 C   0  0  0  0  0  0  0  0  0  0  0  0
  -15.2318  -11.3181   15.8210 C   0  0  0  0  0  0  0  0  0  0  0  0
  -15.2767  -12.5024   15.4869 O   0  0  0  0  0  0  0  0  0  0  0  0
  -15.7068  -10.8578   17.1758 C   0  0  0  0  0  0  0  0  0  0  0  0
  -14.6777   -9.9448   17.8471 C   0  0  0  0  0  0  0  0  0  0  0  0
  -13.7680   -9.1448   16.8697 C   0  0  0  0  0  0  0  0  0  0  0  0
  -13.2196   -7.9744   17.5726 N   0  0  0  0  0  0  0  0  0  0  0  0
  -12.3478   -8.2827   18.7200 C   0  0  0  0  0  0  0  0  0  0  0  0
  -11.0098   -8.9639   18.3506 C   0  0  0  0  0  0  0  0  0  0  0  0
  -10.3810   -8.4090   17.1466 N   0  0  0  0  0  0  0  0  0  0  0  0
   -9.8185   -7.0748   17.3838 C   0  0  0  0  0  0  0  0  0  0  0  0
   -9.0916   -6.6577   16.1466 C   0  0  0  0  0  0  0  0  0  0  0  0
   -9.6551   -6.4408   14.9014 C   0  0  0  0  0  0  0  0  0  0  0  0
   -8.6662   -6.0768   14.0306 N   0  0  0  0  0  0  0  0  0  0  0  0
   -7.4545   -6.0300   14.6829 C   0  0  0  0  0  0  0  0  0  0  0  0
   -6.1819   -5.7001   14.1977 C   0  0  0  0  0  0  0  0  0  0  0  0
   -5.1104   -5.7435   15.0962 C   0  0  0  0  0  0  0  0  0  0  0  0
   -5.3065   -6.1059   16.4260 C   0  0  0  0  0  0  0  0  0  0  0  0
   -6.5855   -6.4370   16.8939 C   0  0  0  0  0  0  0  0  0  0  0  0
   -7.6865   -6.3957   16.0111 C   0  0  0  0  0  0  0  0  0  0  0  0
  1  2  1  0
  2  3  2  0
  3  4  1  0
  4  5  2  0
  5  6  1  0
  6  7  2  0
  7  8  1  0
  8  9  1  0
  9 10  1  0
 10 11  2  0
 10 12  1  0
 12 13  1  0
 13 14  1  0
 14 15  1  0
 15 16  1  0
 16 17  1  0
 17 18  1  0
 18 19  1  0
 19 20  1  0
 20 21  2  0
 21 22  1  0
 22 23  1  0
 23 24  2  0
 24 25  1  0
 25 26  2  0
 26 27  1  0
 27 28  2  0
  7  2  1  0
 14  8  1  0
 28 20  1  0
 28 23  1  0
M  END
$$$$
