
     RDKit          3D

 26 28  0  0  0  0  0  0  0  0999 V2000
    1.9224   -2.4036  -27.0846 N   0  0  0  0  0  0  0  0  0  0  0  0
    2.3759   -3.1715  -25.9245 C   0  0  0  0  0  0  0  0  0  0  0  0
    2.2780   -2.3561  -24.6416 C   0  0  0  0  0  0  0  0  0  0  0  0
    0.8392   -2.1507  -24.2160 C   0  0  0  0  0  0  0  0  0  0  0  0
    0.0697   -3.1071  -24.1048 O   0  0  0  0  0  0  0  0  0  0  0  0
    0.4226   -0.7356  -23.8510 C   0  0  0  0  0  0  0  0  0  0  0  0
   -1.0495   -0.4529  -24.1731 C   0  0  0  0  0  0  0  0  0  0  0  0
   -1.4266   -0.5215  -25.6446 C   0  0  0  0  0  0  0  0  0  0  0  0
   -0.5773    0.0954  -26.5848 C   0  0  0  0  0  0  0  0  0  0  0  0
   -0.8168   -0.0652  -27.9380 C   0  0  0  0  0  0  0  0  0  0  0  0
   -1.8374   -0.7854  -28.4234 N   0  0  0  0  0  0  0  0  0  0  0  0
   -2.6801   -1.3161  -27.5033 C   0  0  0  0  0  0  0  0  0  0  0  0
   -2.5742   -1.2026  -26.1078 C   0  0  0  0  0  0  0  0  0  0  0  0
   -3.5559   -1.7210  -25.2811 N   0  0  0  0  0  0  0  0  0  0  0  0
   -4.2079   -0.8965  -24.2557 C   0  0  0  0  0  0  0  0  0  0  0  0
   -4.1555   -1.5782  -22.8933 C   0  0  0  0  0  0  0  0  0  0  0  0
   -4.1086   -0.9242  -21.8477 O   0  0  0  0  0  0  0  0  0  0  0  0
   -4.3000   -3.0860  -22.8599 C   0  0  0  0  0  0  0  0  0  0  0  0
   -3.5706   -3.7339  -24.0345 C   0  0  0  0  0  0  0  0  0  0  0  0
   -4.0185   -3.1149  -25.3896 C   0  0  0  0  0  0  0  0  0  0  0  0
   -5.4633   -3.3720  -25.6285 N   0  0  0  0  0  0  0  0  0  0  0  0
   -5.9430   -2.6449  -26.8172 C   0  0  0  0  0  0  0  0  0  0  0  0
   -7.4527   -2.8050  -27.0049 C   0  0  0  0  0  0  0  0  0  0  0  0
   -7.8368   -4.2723  -27.1222 C   0  0  0  0  0  0  0  0  0  0  0  0
   -7.2685   -5.0559  -25.9486 C   0  0  0  0  0  0  0  0  0  0  0  0
   -5.7667   -4.8086  -25.7762 C   0  0  0  0  0  0  0  0  0  0  0  0
  1  2  1  0
  2  3  1  0
  3  4  1  0
  4  5  2  0
  4  6  1  0
  6  7  1  0
  7  8  1  0
  8  9  2  0
  9 10  1  0
 10 11  2  0
 11 12  1  0
 12 13  2  0
 13 14  1  0
 14 15  1  0
 15 16  1  0
 16 17  2  0
 16 18  1  0
 18 19  1  0
 19 20  1  0
 20 21  1  0
 21 22  1  0
 22 23  1  0
 23 24  1  0
 24 25  1  0
 25 26  1  0
 13  8  1  0
 20 14  1  0
 26 21  1  0
M  END
$$$$
