
     RDKit          3D

 27 30  0  0  0  0  0  0  0  0999 V2000
  -12.3099   10.8797   -6.3902 N   0  0  0  0  0  0  0  0  0  0  0  0
  -13.3803   11.0579   -7.2221 C   0  0  0  0  0  0  0  0  0  0  0  0
  -14.4153   11.5762   -6.8177 O   0  0  0  0  0  0  0  0  0  0  0  0
  -13.2262   10.5950   -8.6283 C   0  0  0  0  0  0  0  0  0  0  0  0
  -14.3989   10.1391   -9.2470 C   0  0  0  0  0  0  0  0  0  0  0  0
  -14.3119    9.6342  -10.5284 C   0  0  0  0  0  0  0  0  0  0  0  0
  -13.1581    9.5522  -11.2152 N   0  0  0  0  0  0  0  0  0  0  0  0
  -12.0424   10.0115  -10.5955 C   0  0  0  0  0  0  0  0  0  0  0  0
  -11.9898   10.5607   -9.3084 C   0  0  0  0  0  0  0  0  0  0  0  0
  -10.8135   11.1279   -8.7545 N   0  0  0  0  0  0  0  0  0  0  0  0
  -10.8468   12.6016   -8.9408 C   0  0  0  0  0  0  0  0  0  0  0  0
   -9.4767   13.2134   -8.6771 C   0  0  0  0  0  0  0  0  0  0  0  0
   -8.4471   12.6801   -9.6696 C   0  0  0  0  0  0  0  0  0  0  0  0
   -8.7243   11.2306  -10.0800 C   0  0  0  0  0  0  0  0  0  0  0  0
   -9.5018   10.4635   -8.9858 C   0  0  0  0  0  0  0  0  0  0  0  0
   -9.4941    9.0217   -9.2268 N   0  0  0  0  0  0  0  0  0  0  0  0
   -8.2097    8.3945   -8.9636 C   0  0  0  0  0  0  0  0  0  0  0  0
   -7.6494    8.5015   -7.6308 N   0  0  0  0  0  0  0  0  0  0  0  0
   -6.3079    8.5002   -7.4770 C   0  0  0  0  0  0  0  0  0  0  0  0
   -5.6083    7.7106   -6.7020 N   0  0  0  0  0  0  0  0  0  0  0  0
   -4.3042    8.1195   -6.8409 C   0  0  0  0  0  0  0  0  0  0  0  0
   -3.1335    7.6153   -6.2538 C   0  0  0  0  0  0  0  0  0  0  0  0
   -1.9109    8.2290   -6.5575 C   0  0  0  0  0  0  0  0  0  0  0  0
   -1.8548    9.3278   -7.4240 C   0  0  0  0  0  0  0  0  0  0  0  0
   -3.0120    9.8464   -8.0187 C   0  0  0  0  0  0  0  0  0  0  0  0
   -4.2159    9.2073   -7.7027 C   0  0  0  0  0  0  0  0  0  0  0  0
   -5.5133    9.4346   -8.0810 N   0  0  0  0  0  0  0  0  0  0  0  0
  1  2  1  0
  2  3  2  0
  2  4  1  0
  4  5  2  0
  5  6  1  0
  6  7  2  0
  7  8  1  0
  8  9  2  0
  9 10  1  0
 10 11  1  0
 11 12  1  0
 12 13  1  0
 13 14  1  0
 14 15  1  0
 15 16  1  0
 16 17  1  0
 17 18  1  0
 18 19  1  0
 19 20  2  0
 20 21  1  0
 21 22  2  0
 22 23  1  0
 23 24  2  0
 24 25  1  0
 25 26  2  0
 26 27  1  0
  9  4  1  0
 15 10  1  0
 27 19  1  0
 26 21  1  0
M  END
$$$$
