
     RDKit          3D

 16 17  0  0  0  0  0  0  0  0999 V2000
   -3.5138   14.9781    6.4720 N   0  0  0  0  0  0  0  0  0  0  0  0
   -4.7620   14.8864    7.2335 C   0  0  0  0  0  0  0  0  0  0  0  0
   -4.7831   13.5807    8.0184 C   0  0  0  0  0  0  0  0  0  0  0  0
   -4.3078   13.5178    9.1551 O   0  0  0  0  0  0  0  0  0  0  0  0
   -5.3206   12.3601    7.2946 C   0  0  0  0  0  0  0  0  0  0  0  0
   -5.7922   11.2470    8.2322 C   0  0  0  0  0  0  0  0  0  0  0  0
   -6.9029   11.6480    9.2120 C   0  0  0  0  0  0  0  0  0  0  0  0
   -8.0919   12.2726    8.5519 C   0  0  0  0  0  0  0  0  0  0  0  0
   -9.0229   11.6294    7.7594 C   0  0  0  0  0  0  0  0  0  0  0  0
   -9.9360   12.5540    7.3303 N   0  0  0  0  0  0  0  0  0  0  0  0
   -9.6234   13.7979    7.8259 C   0  0  0  0  0  0  0  0  0  0  0  0
  -10.2658   15.0287    7.6444 C   0  0  0  0  0  0  0  0  0  0  0  0
   -9.7230   16.1446    8.2881 C   0  0  0  0  0  0  0  0  0  0  0  0
   -8.5862   16.0309    9.0841 C   0  0  0  0  0  0  0  0  0  0  0  0
   -7.9569   14.7926    9.2546 C   0  0  0  0  0  0  0  0  0  0  0  0
   -8.4794   13.6513    8.6105 C   0  0  0  0  0  0  0  0  0  0  0  0
  1  2  1  0
  2  3  1  0
  3  4  2  0
  3  5  1  0
  5  6  1  0
  6  7  1  0
  7  8  1  0
  8  9  2  0
  9 10  1  0
 10 11  1  0
 11 12  2  0
 12 13  1  0
 13 14  2  0
 14 15  1  0
 15 16  2  0
 16  8  1  0
 16 11  1  0
M  END
$$$$
