
     RDKit          3D

 25 27  0  0  0  0  0  0  0  0999 V2000
   -5.3034   12.0191   -9.0738 N   0  0  0  0  0  0  0  0  0  0  0  0
   -5.4559   12.7356  -10.2242 C   0  0  0  0  0  0  0  0  0  0  0  0
   -4.9174   13.8270  -10.3616 O   0  0  0  0  0  0  0  0  0  0  0  0
   -6.3341   12.1702  -11.2877 C   0  0  0  0  0  0  0  0  0  0  0  0
   -6.9198   13.0981  -12.1674 C   0  0  0  0  0  0  0  0  0  0  0  0
   -7.7796   12.6752  -13.1806 C   0  0  0  0  0  0  0  0  0  0  0  0
   -8.0571   11.3191  -13.3197 C   0  0  0  0  0  0  0  0  0  0  0  0
   -9.1213   10.7904  -14.5693 Cl  0  0  0  0  0  0  0  0  0  0  0  0
   -7.4763   10.3849  -12.4645 C   0  0  0  0  0  0  0  0  0  0  0  0
   -6.5884   10.7953  -11.4564 C   0  0  0  0  0  0  0  0  0  0  0  0
   -5.9470    9.9099  -10.6235 O   0  0  0  0  0  0  0  0  0  0  0  0
   -5.6658    8.6220  -11.1817 C   0  0  0  0  0  0  0  0  0  0  0  0
   -4.6353    7.9151  -10.4250 N   0  0  0  0  0  0  0  0  0  0  0  0
   -3.2758    8.3519  -10.7340 C   0  0  0  0  0  0  0  0  0  0  0  0
   -3.0276    8.1197  -12.1143 O   0  0  0  0  0  0  0  0  0  0  0  0
   -2.9430    9.8076  -10.3331 C   0  0  0  0  0  0  0  0  0  0  0  0
   -1.4719   10.1124  -10.3900 C   0  0  0  0  0  0  0  0  0  0  0  0
   -0.8519   10.9853  -11.2639 C   0  0  0  0  0  0  0  0  0  0  0  0
    0.4897   10.9865  -10.9953 N   0  0  0  0  0  0  0  0  0  0  0  0
    0.7670   10.1205   -9.9662 C   0  0  0  0  0  0  0  0  0  0  0  0
    1.9914    9.7918   -9.3719 C   0  0  0  0  0  0  0  0  0  0  0  0
    1.9745    8.8785   -8.3149 C   0  0  0  0  0  0  0  0  0  0  0  0
    0.7785    8.3237   -7.8655 C   0  0  0  0  0  0  0  0  0  0  0  0
   -0.4372    8.6661   -8.4691 C   0  0  0  0  0  0  0  0  0  0  0  0
   -0.4471    9.5737   -9.5478 C   0  0  0  0  0  0  0  0  0  0  0  0
  1  2  1  0
  2  3  2  0
  2  4  1  0
  4  5  2  0
  5  6  1  0
  6  7  2  0
  7  8  1  0
  7  9  1  0
  9 10  2  0
 10 11  1  0
 11 12  1  0
 12 13  1  0
 13 14  1  0
 14 15  1  0
 14 16  1  0
 16 17  1  0
 17 18  2  0
 18 19  1  0
 19 20  1  0
 20 21  2  0
 21 22  1  0
 22 23  2  0
 23 24  1  0
 24 25  2  0
 10  4  1  0
 25 17  1  0
 25 20  1  0
M  END
$$$$
