
     RDKit          3D

 26 28  0  0  0  0  0  0  0  0999 V2000
   29.1144   29.5155  -34.2293 C   0  0  0  0  0  0  0  0  0  0  0  0
   28.6411   28.6878  -35.3084 N   0  0  0  0  0  0  0  0  0  0  0  0
   28.5331   27.3163  -35.1596 C   0  0  0  0  0  0  0  0  0  0  0  0
   28.7237   26.7522  -34.0861 O   0  0  0  0  0  0  0  0  0  0  0  0
   28.1168   26.6025  -36.4341 C   0  0  0  0  0  0  0  0  0  0  0  0
   28.6579   25.1962  -36.5724 C   0  0  0  0  0  0  0  0  0  0  0  0
   27.9157   24.1533  -35.9815 C   0  0  0  0  0  0  0  0  0  0  0  0
   28.2746   22.8163  -36.1549 C   0  0  0  0  0  0  0  0  0  0  0  0
   29.3775   22.4980  -36.9347 C   0  0  0  0  0  0  0  0  0  0  0  0
   29.8350   21.2378  -37.2090 O   0  0  0  0  0  0  0  0  0  0  0  0
   29.1340   20.1576  -36.6061 C   0  0  0  0  0  0  0  0  0  0  0  0
   30.1249   23.5318  -37.5084 C   0  0  0  0  0  0  0  0  0  0  0  0
   29.8166   24.8928  -37.3145 C   0  0  0  0  0  0  0  0  0  0  0  0
   30.6413   25.8629  -37.8711 N   0  0  0  0  0  0  0  0  0  0  0  0
   30.7192   25.9669  -39.3166 C   0  0  0  0  0  0  0  0  0  0  0  0
   29.5394   26.6091  -39.7871 O   0  0  0  0  0  0  0  0  0  0  0  0
   31.9304   26.7861  -39.7651 C   0  0  0  0  0  0  0  0  0  0  0  0
   31.9870   28.1612  -39.0917 C   0  0  0  0  0  0  0  0  0  0  0  0
   31.3550   28.1526  -37.6961 C   0  0  0  0  0  0  0  0  0  0  0  0
   31.4541   26.7533  -37.0248 C   0  0  0  0  0  0  0  0  0  0  0  0
   32.8865   26.4593  -36.7449 N   0  0  0  0  0  0  0  0  0  0  0  0
   33.1013   25.0704  -36.3421 C   0  0  0  0  0  0  0  0  0  0  0  0
   34.5988   24.7412  -36.2614 C   0  0  0  0  0  0  0  0  0  0  0  0
   35.4404   25.8622  -35.6573 C   0  0  0  0  0  0  0  0  0  0  0  0
   34.5679   26.8239  -34.8722 C   0  0  0  0  0  0  0  0  0  0  0  0
   33.4522   27.3993  -35.7539 C   0  0  0  0  0  0  0  0  0  0  0  0
  1  2  1  0
  2  3  1  0
  3  4  2  0
  3  5  1  0
  5  6  1  0
  6  7  2  0
  7  8  1  0
  8  9  2  0
  9 10  1  0
 10 11  1  0
  9 12  1  0
 12 13  2  0
 13 14  1  0
 14 15  1  0
 15 16  1  0
 15 17  1  0
 17 18  1  0
 18 19  1  0
 19 20  1  0
 20 21  1  0
 21 22  1  0
 22 23  1  0
 23 24  1  0
 24 25  1  0
 25 26  1  0
 13  6  1  0
 20 14  1  0
 26 21  1  0
M  END
$$$$
