
     RDKit          3D

 28 31  0  0  0  0  0  0  0  0999 V2000
  -20.0282  -25.1691   13.7167 N   0  0  0  0  0  0  0  0  0  0  0  0
  -19.2201  -25.1673   14.9325 C   0  0  0  0  0  0  0  0  0  0  0  0
  -19.9106  -24.4541   16.0765 C   0  0  0  0  0  0  0  0  0  0  0  0
  -20.8603  -25.1950   16.8161 C   0  0  0  0  0  0  0  0  0  0  0  0
  -21.4908  -24.6501   17.9302 C   0  0  0  0  0  0  0  0  0  0  0  0
  -21.1666  -23.3609   18.3148 C   0  0  0  0  0  0  0  0  0  0  0  0
  -21.7451  -22.7794   19.4054 O   0  0  0  0  0  0  0  0  0  0  0  0
  -20.2397  -22.6091   17.5948 C   0  0  0  0  0  0  0  0  0  0  0  0
  -19.6057  -23.1174   16.4485 C   0  0  0  0  0  0  0  0  0  0  0  0
  -18.7115  -22.3473   15.6987 N   0  0  0  0  0  0  0  0  0  0  0  0
  -19.1702  -22.0525   14.3159 C   0  0  0  0  0  0  0  0  0  0  0  0
  -19.2444  -20.5535   14.0620 C   0  0  0  0  0  0  0  0  0  0  0  0
  -19.1384  -20.0688   12.9356 O   0  0  0  0  0  0  0  0  0  0  0  0
  -19.5322  -19.6950   15.2663 C   0  0  0  0  0  0  0  0  0  0  0  0
  -18.5088  -19.9519   16.3632 C   0  0  0  0  0  0  0  0  0  0  0  0
  -17.8278  -21.3264   16.2801 C   0  0  0  0  0  0  0  0  0  0  0  0
  -17.3540  -21.6754   17.5743 O   0  0  0  0  0  0  0  0  0  0  0  0
  -16.3698  -22.6918   17.5338 C   0  0  0  0  0  0  0  0  0  0  0  0
  -15.0809  -22.0694   17.3110 N   0  0  0  0  0  0  0  0  0  0  0  0
  -13.9931  -22.8627   17.2283 C   0  0  0  0  0  0  0  0  0  0  0  0
  -12.8970  -22.7661   17.9373 N   0  0  0  0  0  0  0  0  0  0  0  0
  -12.0737  -23.7650   17.4753 C   0  0  0  0  0  0  0  0  0  0  0  0
  -10.7830  -24.1274   17.8868 C   0  0  0  0  0  0  0  0  0  0  0  0
  -10.1472  -25.1954   17.2404 C   0  0  0  0  0  0  0  0  0  0  0  0
  -10.7819  -25.8857   16.2041 C   0  0  0  0  0  0  0  0  0  0  0  0
  -12.0693  -25.5377   15.7779 C   0  0  0  0  0  0  0  0  0  0  0  0
  -12.6802  -24.4728   16.4430 C   0  0  0  0  0  0  0  0  0  0  0  0
  -13.8995  -23.8638   16.2976 N   0  0  0  0  0  0  0  0  0  0  0  0
  1  2  1  0
  2  3  1  0
  3  4  2  0
  4  5  1  0
  5  6  2  0
  6  7  1  0
  6  8  1  0
  8  9  2  0
  9 10  1  0
 10 11  1  0
 11 12  1  0
 12 13  2  0
 12 14  1  0
 14 15  1  0
 15 16  1  0
 16 17  1  0
 17 18  1  0
 18 19  1  0
 19 20  1  0
 20 21  2  0
 21 22  1  0
 22 23  2  0
 23 24  1  0
 24 25  2  0
 25 26  1  0
 26 27  2  0
 27 28  1  0
  9  3  1  0
 16 10  1  0
 28 20  1  0
 27 22  1  0
M  END
$$$$
