
     RDKit          3D

 30 32  0  0  0  0  0  0  0  0999 V2000
   10.2741    3.7735   -5.3894 N   0  0  0  0  0  0  0  0  0  0  0  0
    9.0925    3.3051   -6.1140 C   0  0  0  0  0  0  0  0  0  0  0  0
    7.9682    4.3269   -6.0077 C   0  0  0  0  0  0  0  0  0  0  0  0
    6.7160    3.8640   -6.7307 C   0  0  0  0  0  0  0  0  0  0  0  0
    6.7194    2.8735   -7.4618 O   0  0  0  0  0  0  0  0  0  0  0  0
    5.4941    4.7525   -6.5589 C   0  0  0  0  0  0  0  0  0  0  0  0
    4.1799    4.0223   -6.6745 C   0  0  0  0  0  0  0  0  0  0  0  0
    3.5733    3.4683   -5.5413 C   0  0  0  0  0  0  0  0  0  0  0  0
    2.3546    2.7952   -5.6532 C   0  0  0  0  0  0  0  0  0  0  0  0
    1.7229    2.6645   -6.8912 C   0  0  0  0  0  0  0  0  0  0  0  0
    0.5338    1.9930   -6.8557 O   0  0  0  0  0  0  0  0  0  0  0  0
   -0.2578    2.0203   -8.0383 C   0  0  0  0  0  0  0  0  0  0  0  0
   -1.6301    1.4202   -7.7821 C   0  0  0  0  0  0  0  0  0  0  0  0
   -2.2740    0.8091   -8.6262 O   0  0  0  0  0  0  0  0  0  0  0  0
   -2.0550    1.6946   -6.5219 O   0  0  0  0  0  0  0  0  0  0  0  0
   -3.3724    1.2390   -6.1949 C   0  0  0  0  0  0  0  0  0  0  0  0
   -3.3649   -0.2648   -5.8521 C   0  0  0  0  0  0  0  0  0  0  0  0
   -3.0974   -0.5563   -4.3690 C   0  0  0  0  0  0  0  0  0  0  0  0
   -2.2743    0.5439   -3.7148 C   0  0  0  0  0  0  0  0  0  0  0  0
   -2.9446    1.9170   -3.8422 C   0  0  0  0  0  0  0  0  0  0  0  0
   -3.8449    1.9688   -5.0045 N   0  0  0  0  0  0  0  0  0  0  0  0
   -4.3440    3.2465   -5.3402 C   0  0  0  0  0  0  0  0  0  0  0  0
   -3.5698    4.4073   -5.4248 C   0  0  0  0  0  0  0  0  0  0  0  0
   -4.0383    5.6283   -5.7848 N   0  0  0  0  0  0  0  0  0  0  0  0
   -5.3476    5.6976   -6.1024 C   0  0  0  0  0  0  0  0  0  0  0  0
   -6.2120    4.6150   -6.0671 C   0  0  0  0  0  0  0  0  0  0  0  0
   -5.7156    3.3844   -5.6438 C   0  0  0  0  0  0  0  0  0  0  0  0
   -6.5379    2.2349   -5.6992 N   0  0  0  0  0  0  0  0  0  0  0  0
    2.3332    3.1935   -8.0274 C   0  0  0  0  0  0  0  0  0  0  0  0
    3.5552    3.8672   -7.9191 C   0  0  0  0  0  0  0  0  0  0  0  0
  1  2  1  0
  2  3  1  0
  3  4  1  0
  4  5  2  0
  4  6  1  0
  6  7  1  0
  7  8  2  0
  8  9  1  0
  9 10  2  0
 10 11  1  0
 11 12  1  0
 12 13  1  0
 13 14  2  0
 13 15  1  0
 15 16  1  0
 16 17  1  0
 17 18  1  0
 18 19  1  0
 19 20  1  0
 20 21  1  0
 21 22  1  0
 22 23  2  0
 23 24  1  0
 24 25  2  0
 25 26  1  0
 26 27  2  0
 27 28  1  0
 10 29  1  0
 29 30  2  0
 30  7  1  0
 21 16  1  0
 27 22  1  0
M  END
$$$$
