
     RDKit          3D

 15 16  0  0  0  0  0  0  0  0999 V2000
    3.2067   -4.3791   18.3186 N   0  0  0  0  0  0  0  0  0  0  0  0
    3.6181   -5.7478   18.0220 C   0  0  0  0  0  0  0  0  0  0  0  0
    2.4452   -6.7175   18.1734 C   0  0  0  0  0  0  0  0  0  0  0  0
    2.8699   -8.1538   17.8613 C   0  0  0  0  0  0  0  0  0  0  0  0
    1.8056   -9.2121   18.1814 C   0  0  0  0  0  0  0  0  0  0  0  0
    0.6087   -9.2425   17.2261 C   0  0  0  0  0  0  0  0  0  0  0  0
   -0.3975   -8.1747   17.4897 C   0  0  0  0  0  0  0  0  0  0  0  0
   -0.8350   -7.7692   18.6644 N   0  0  0  0  0  0  0  0  0  0  0  0
   -1.7386   -6.7696   18.4010 C   0  0  0  0  0  0  0  0  0  0  0  0
   -2.4934   -5.9854   19.2846 C   0  0  0  0  0  0  0  0  0  0  0  0
   -3.3538   -5.0155   18.7540 C   0  0  0  0  0  0  0  0  0  0  0  0
   -3.4600   -4.8318   17.3728 C   0  0  0  0  0  0  0  0  0  0  0  0
   -2.7149   -5.6064   16.4755 C   0  0  0  0  0  0  0  0  0  0  0  0
   -1.8654   -6.5645   17.0325 C   0  0  0  0  0  0  0  0  0  0  0  0
   -1.0097   -7.4788   16.4749 N   0  0  0  0  0  0  0  0  0  0  0  0
  1  2  1  0
  2  3  1  0
  3  4  1  0
  4  5  1  0
  5  6  1  0
  6  7  1  0
  7  8  2  0
  8  9  1  0
  9 10  2  0
 10 11  1  0
 11 12  2  0
 12 13  1  0
 13 14  2  0
 14 15  1  0
 15  7  1  0
 14  9  1  0
M  END
$$$$
