
     RDKit          3D

 16 17  0  0  0  0  0  0  0  0999 V2000
   66.8472   -6.9236  -69.7498 N   0  0  0  0  0  0  0  0  0  0  0  0
   67.4088   -8.0144  -68.9646 C   0  0  0  0  0  0  0  0  0  0  0  0
   66.3124   -8.7020  -68.1541 C   0  0  0  0  0  0  0  0  0  0  0  0
   66.8950   -9.7841  -67.2540 C   0  0  0  0  0  0  0  0  0  0  0  0
   65.8275  -10.6727  -66.6459 C   0  0  0  0  0  0  0  0  0  0  0  0
   65.7788  -11.8723  -66.9329 O   0  0  0  0  0  0  0  0  0  0  0  0
   64.8517  -10.0484  -65.6651 C   0  0  0  0  0  0  0  0  0  0  0  0
   63.5460   -9.7050  -66.3031 C   0  0  0  0  0  0  0  0  0  0  0  0
   62.6791  -10.5909  -66.9152 C   0  0  0  0  0  0  0  0  0  0  0  0
   61.5942   -9.8945  -67.3698 N   0  0  0  0  0  0  0  0  0  0  0  0
   61.7217   -8.5618  -67.0585 C   0  0  0  0  0  0  0  0  0  0  0  0
   60.8594   -7.4904  -67.3213 C   0  0  0  0  0  0  0  0  0  0  0  0
   61.2473   -6.2225  -66.8805 C   0  0  0  0  0  0  0  0  0  0  0  0
   62.4491   -6.0369  -66.2028 C   0  0  0  0  0  0  0  0  0  0  0  0
   63.2987   -7.1197  -65.9472 C   0  0  0  0  0  0  0  0  0  0  0  0
   62.9342   -8.4109  -66.3838 C   0  0  0  0  0  0  0  0  0  0  0  0
  1  2  1  0
  2  3  1  0
  3  4  1  0
  4  5  1  0
  5  6  2  0
  5  7  1  0
  7  8  1  0
  8  9  2  0
  9 10  1  0
 10 11  1  0
 11 12  2  0
 12 13  1  0
 13 14  2  0
 14 15  1  0
 15 16  2  0
 16  8  1  0
 16 11  1  0
M  END
$$$$
