
     RDKit          3D

 27 30  0  0  0  0  0  0  0  0999 V2000
  -20.4002  -22.1084    7.9552 N   0  0  0  0  0  0  0  0  0  0  0  0
  -20.8519  -21.8197    6.6956 C   0  0  0  0  0  0  0  0  0  0  0  0
  -21.4640  -22.6471    6.0361 O   0  0  0  0  0  0  0  0  0  0  0  0
  -20.5438  -20.4608    6.1883 C   0  0  0  0  0  0  0  0  0  0  0  0
  -20.8575  -19.3915    7.0424 C   0  0  0  0  0  0  0  0  0  0  0  0
  -20.6638  -18.1020    6.5884 C   0  0  0  0  0  0  0  0  0  0  0  0
  -20.1975  -17.8138    5.3613 N   0  0  0  0  0  0  0  0  0  0  0  0
  -19.9239  -18.8661    4.5533 C   0  0  0  0  0  0  0  0  0  0  0  0
  -20.0432  -20.2205    4.8970 C   0  0  0  0  0  0  0  0  0  0  0  0
  -19.6512  -21.1712    3.9338 N   0  0  0  0  0  0  0  0  0  0  0  0
  -20.7915  -21.5293    3.0557 C   0  0  0  0  0  0  0  0  0  0  0  0
  -20.3443  -22.4295    1.9164 C   0  0  0  0  0  0  0  0  0  0  0  0
  -20.7693  -22.2927    0.7676 O   0  0  0  0  0  0  0  0  0  0  0  0
  -19.3803  -23.5407    2.2552 C   0  0  0  0  0  0  0  0  0  0  0  0
  -19.1535  -23.6187    3.7578 C   0  0  0  0  0  0  0  0  0  0  0  0
  -18.7314  -22.2684    4.3631 C   0  0  0  0  0  0  0  0  0  0  0  0
  -17.2658  -21.9251    3.9582 C   0  0  0  0  0  0  0  0  0  0  0  0
  -16.7933  -20.7391    4.6762 N   0  0  0  0  0  0  0  0  0  0  0  0
  -15.4722  -20.4768    4.6401 C   0  0  0  0  0  0  0  0  0  0  0  0
  -14.4830  -21.2718    4.3107 N   0  0  0  0  0  0  0  0  0  0  0  0
  -13.3435  -20.5162    4.4458 C   0  0  0  0  0  0  0  0  0  0  0  0
  -12.0035  -20.8631    4.2206 C   0  0  0  0  0  0  0  0  0  0  0  0
  -11.0139  -19.8948    4.4354 C   0  0  0  0  0  0  0  0  0  0  0  0
  -11.3516  -18.6087    4.8657 C   0  0  0  0  0  0  0  0  0  0  0  0
  -12.6835  -18.2439    5.0963 C   0  0  0  0  0  0  0  0  0  0  0  0
  -13.6478  -19.2287    4.8732 C   0  0  0  0  0  0  0  0  0  0  0  0
  -15.0131  -19.2350    4.9921 N   0  0  0  0  0  0  0  0  0  0  0  0
  1  2  1  0
  2  3  2  0
  2  4  1  0
  4  5  2  0
  5  6  1  0
  6  7  2  0
  7  8  1  0
  8  9  2  0
  9 10  1  0
 10 11  1  0
 11 12  1  0
 12 13  2  0
 12 14  1  0
 14 15  1  0
 15 16  1  0
 16 17  1  0
 17 18  1  0
 18 19  1  0
 19 20  2  0
 20 21  1  0
 21 22  2  0
 22 23  1  0
 23 24  2  0
 24 25  1  0
 25 26  2  0
 26 27  1  0
  9  4  1  0
 16 10  1  0
 27 19  1  0
 26 21  1  0
M  END
$$$$
