
     RDKit          3D

 24 26  0  0  0  0  0  0  0  0999 V2000
  -22.4926  -34.8428   25.2919 C   0  0  0  0  0  0  0  0  0  0  0  0
  -21.5610  -33.8115   24.9919 O   0  0  0  0  0  0  0  0  0  0  0  0
  -21.5631  -32.7192   25.8148 C   0  0  0  0  0  0  0  0  0  0  0  0
  -22.4091  -32.5069   26.8936 C   0  0  0  0  0  0  0  0  0  0  0  0
  -22.2970  -31.3322   27.6405 C   0  0  0  0  0  0  0  0  0  0  0  0
  -21.3366  -30.3430   27.3341 C   0  0  0  0  0  0  0  0  0  0  0  0
  -21.3581  -29.0913   28.1838 C   0  0  0  0  0  0  0  0  0  0  0  0
  -22.5351  -28.1765   27.8198 C   0  0  0  0  0  0  0  0  0  0  0  0
  -22.4888  -26.9284   28.5812 N   0  0  0  0  0  0  0  0  0  0  0  0
  -20.4558  -30.5627   26.2574 C   0  0  0  0  0  0  0  0  0  0  0  0
  -19.4257  -29.7078   25.8375 N   0  0  0  0  0  0  0  0  0  0  0  0
  -19.9070  -28.4974   25.1552 C   0  0  0  0  0  0  0  0  0  0  0  0
  -18.7639  -27.8194   24.4162 C   0  0  0  0  0  0  0  0  0  0  0  0
  -18.9261  -27.2507   23.3347 O   0  0  0  0  0  0  0  0  0  0  0  0
  -17.4491  -27.7223   25.1543 C   0  0  0  0  0  0  0  0  0  0  0  0
  -17.1021  -29.0407   25.8365 C   0  0  0  0  0  0  0  0  0  0  0  0
  -18.2664  -29.5341   26.7403 C   0  0  0  0  0  0  0  0  0  0  0  0
  -17.8406  -30.6401   27.6086 N   0  0  0  0  0  0  0  0  0  0  0  0
  -17.1205  -30.2173   28.8107 C   0  0  0  0  0  0  0  0  0  0  0  0
  -16.3264  -31.3492   29.4771 C   0  0  0  0  0  0  0  0  0  0  0  0
  -17.0308  -32.6898   29.3189 C   0  0  0  0  0  0  0  0  0  0  0  0
  -17.2907  -33.0101   27.8440 C   0  0  0  0  0  0  0  0  0  0  0  0
  -17.2296  -31.7767   26.9352 C   0  0  0  0  0  0  0  0  0  0  0  0
  -20.6067  -31.7490   25.5082 C   0  0  0  0  0  0  0  0  0  0  0  0
  1  2  1  0
  2  3  1  0
  3  4  2  0
  4  5  1  0
  5  6  2  0
  6  7  1  0
  7  8  1  0
  8  9  1  0
  6 10  1  0
 10 11  1  0
 11 12  1  0
 12 13  1  0
 13 14  2  0
 13 15  1  0
 15 16  1  0
 16 17  1  0
 17 18  1  0
 18 19  1  0
 19 20  1  0
 20 21  1  0
 21 22  1  0
 22 23  1  0
 10 24  2  0
 24  3  1  0
 17 11  1  0
 23 18  1  0
M  END
$$$$
