
     RDKit          3D

 17 18  0  0  0  0  0  0  0  0999 V2000
   41.0862  -39.5911  -23.9611 C   0  0  0  0  0  0  0  0  0  0  0  0
   40.4026  -38.3789  -23.6699 O   0  0  0  0  0  0  0  0  0  0  0  0
   41.1784  -37.2939  -23.3691 C   0  0  0  0  0  0  0  0  0  0  0  0
   40.4774  -36.1248  -23.1097 C   0  0  0  0  0  0  0  0  0  0  0  0
   41.1572  -34.9491  -22.7843 C   0  0  0  0  0  0  0  0  0  0  0  0
   42.5622  -34.9055  -22.6966 C   0  0  0  0  0  0  0  0  0  0  0  0
   43.2530  -33.6071  -22.3193 C   0  0  0  0  0  0  0  0  0  0  0  0
   42.4791  -32.5854  -21.4620 C   0  0  0  0  0  0  0  0  0  0  0  0
   41.5706  -31.7393  -22.2379 N   0  0  0  0  0  0  0  0  0  0  0  0
   43.2841  -36.0846  -22.9958 C   0  0  0  0  0  0  0  0  0  0  0  0
   44.6799  -36.2162  -23.0045 N   0  0  0  0  0  0  0  0  0  0  0  0
   45.4482  -35.3132  -23.8618 C   0  0  0  0  0  0  0  0  0  0  0  0
   46.8234  -35.9326  -24.1184 C   0  0  0  0  0  0  0  0  0  0  0  0
   47.5330  -36.2552  -22.8029 C   0  0  0  0  0  0  0  0  0  0  0  0
   46.6569  -37.1330  -21.9089 C   0  0  0  0  0  0  0  0  0  0  0  0
   45.2728  -36.5161  -21.6977 C   0  0  0  0  0  0  0  0  0  0  0  0
   42.5696  -37.2643  -23.3112 C   0  0  0  0  0  0  0  0  0  0  0  0
  1  2  1  0
  2  3  1  0
  3  4  2  0
  4  5  1  0
  5  6  2  0
  6  7  1  0
  7  8  1  0
  8  9  1  0
  6 10  1  0
 10 11  1  0
 11 12  1  0
 12 13  1  0
 13 14  1  0
 14 15  1  0
 15 16  1  0
 10 17  2  0
 17  3  1  0
 16 11  1  0
M  END
$$$$
