
     RDKit          3D

 17 18  0  0  0  0  0  0  0  0999 V2000
    8.0300    2.5008  -34.0880 N   0  0  0  0  0  0  0  0  0  0  0  0
    8.4285    2.4273  -35.4983 C   0  0  0  0  0  0  0  0  0  0  0  0
    9.4566    1.3330  -35.7751 C   0  0  0  0  0  0  0  0  0  0  0  0
   10.2612    1.4460  -36.6998 O   0  0  0  0  0  0  0  0  0  0  0  0
    9.4112    0.0701  -34.9893 C   0  0  0  0  0  0  0  0  0  0  0  0
    8.1738   -0.6037  -34.9470 C   0  0  0  0  0  0  0  0  0  0  0  0
    8.0569   -1.8264  -34.2898 C   0  0  0  0  0  0  0  0  0  0  0  0
    9.1757   -2.3784  -33.6876 C   0  0  0  0  0  0  0  0  0  0  0  0
    9.0721   -3.5566  -33.0589 F   0  0  0  0  0  0  0  0  0  0  0  0
   10.4041   -1.7270  -33.7272 C   0  0  0  0  0  0  0  0  0  0  0  0
   10.5546   -0.4834  -34.3705 C   0  0  0  0  0  0  0  0  0  0  0  0
   11.8360    0.0770  -34.3308 N   0  0  0  0  0  0  0  0  0  0  0  0
   12.0027    1.4347  -33.8023 C   0  0  0  0  0  0  0  0  0  0  0  0
   12.8977    2.2939  -34.6910 C   0  0  0  0  0  0  0  0  0  0  0  0
   14.2421    1.6277  -34.9776 C   0  0  0  0  0  0  0  0  0  0  0  0
   14.1363    0.1113  -35.1454 C   0  0  0  0  0  0  0  0  0  0  0  0
   12.7079   -0.3402  -35.4370 C   0  0  0  0  0  0  0  0  0  0  0  0
  1  2  1  0
  2  3  1  0
  3  4  2  0
  3  5  1  0
  5  6  2  0
  6  7  1  0
  7  8  2  0
  8  9  1  0
  8 10  1  0
 10 11  2  0
 11 12  1  0
 12 13  1  0
 13 14  1  0
 14 15  1  0
 15 16  1  0
 16 17  1  0
 11  5  1  0
 17 12  1  0
M  END
$$$$
