
     RDKit          3D

 16 17  0  0  0  0  0  0  0  0999 V2000
  -48.2777   19.6925   16.6613 N   0  0  0  0  0  0  0  0  0  0  0  0
  -47.7162   18.6017   17.4465 C   0  0  0  0  0  0  0  0  0  0  0  0
  -48.8125   17.9141   18.2569 C   0  0  0  0  0  0  0  0  0  0  0  0
  -48.2300   16.8320   19.1570 C   0  0  0  0  0  0  0  0  0  0  0  0
  -49.2975   15.9434   19.7652 C   0  0  0  0  0  0  0  0  0  0  0  0
  -49.3462   14.7438   19.4781 O   0  0  0  0  0  0  0  0  0  0  0  0
  -50.2733   16.5677   20.7459 C   0  0  0  0  0  0  0  0  0  0  0  0
  -51.5790   16.9111   20.1080 C   0  0  0  0  0  0  0  0  0  0  0  0
  -52.4459   16.0252   19.4959 C   0  0  0  0  0  0  0  0  0  0  0  0
  -53.5308   16.7216   19.0412 N   0  0  0  0  0  0  0  0  0  0  0  0
  -53.4033   18.0543   19.3525 C   0  0  0  0  0  0  0  0  0  0  0  0
  -54.2656   19.1257   19.0897 C   0  0  0  0  0  0  0  0  0  0  0  0
  -53.8777   20.3936   19.5306 C   0  0  0  0  0  0  0  0  0  0  0  0
  -52.6759   20.5792   20.2082 C   0  0  0  0  0  0  0  0  0  0  0  0
  -51.8263   19.4964   20.4639 C   0  0  0  0  0  0  0  0  0  0  0  0
  -52.1908   18.2052   20.0273 C   0  0  0  0  0  0  0  0  0  0  0  0
  1  2  1  0
  2  3  1  0
  3  4  1  0
  4  5  1  0
  5  6  2  0
  5  7  1  0
  7  8  1  0
  8  9  2  0
  9 10  1  0
 10 11  1  0
 11 12  2  0
 12 13  1  0
 13 14  2  0
 14 15  1  0
 15 16  2  0
 16  8  1  0
 16 11  1  0
M  END
$$$$
