
     RDKit          3D

 30 32  0  0  0  0  0  0  0  0999 V2000
   -0.5197   33.2577  -28.4874 C   0  0  0  0  0  0  0  0  0  0  0  0
   -1.7003   33.4798  -27.6710 N   0  0  0  0  0  0  0  0  0  0  0  0
   -2.3040   32.3999  -27.0168 C   0  0  0  0  0  0  0  0  0  0  0  0
   -1.6479   31.1982  -26.7419 C   0  0  0  0  0  0  0  0  0  0  0  0
   -2.2769   30.1731  -26.0249 C   0  0  0  0  0  0  0  0  0  0  0  0
   -3.5739   30.3418  -25.5388 C   0  0  0  0  0  0  0  0  0  0  0  0
   -4.2708   29.3935  -24.8329 O   0  0  0  0  0  0  0  0  0  0  0  0
   -3.6319   28.1472  -24.5973 C   0  0  0  0  0  0  0  0  0  0  0  0
   -4.2367   31.5616  -25.7621 C   0  0  0  0  0  0  0  0  0  0  0  0
   -5.4996   31.6607  -25.2311 O   0  0  0  0  0  0  0  0  0  0  0  0
   -6.2127   32.8735  -25.4330 C   0  0  0  0  0  0  0  0  0  0  0  0
   -7.5107   32.7296  -24.7982 N   0  0  0  0  0  0  0  0  0  0  0  0
   -8.5201   33.6263  -25.2177 C   0  0  0  0  0  0  0  0  0  0  0  0
   -8.2846   35.0037  -25.3249 C   0  0  0  0  0  0  0  0  0  0  0  0
   -9.3081   35.8697  -25.7082 C   0  0  0  0  0  0  0  0  0  0  0  0
  -10.5783   35.3567  -25.9720 C   0  0  0  0  0  0  0  0  0  0  0  0
  -11.8890   36.4559  -26.4172 S   0  0  0  0  0  0  0  0  0  0  0  0
  -11.7938   36.4460  -28.0931 N   0  0  0  0  0  0  0  0  0  0  0  0
  -13.1553   35.8439  -26.0880 O   0  0  0  0  0  0  0  0  0  0  0  0
  -11.5475   37.7981  -26.0086 O   0  0  0  0  0  0  0  0  0  0  0  0
  -10.8491   33.9919  -25.8265 C   0  0  0  0  0  0  0  0  0  0  0  0
   -9.8314   33.1106  -25.4408 C   0  0  0  0  0  0  0  0  0  0  0  0
  -10.0458   31.7210  -25.2524 N   0  0  0  0  0  0  0  0  0  0  0  0
  -10.3119   31.4091  -23.8364 C   0  0  0  0  0  0  0  0  0  0  0  0
  -10.1365   29.9044  -23.6400 C   0  0  0  0  0  0  0  0  0  0  0  0
  -11.0930   29.1161  -24.5238 C   0  0  0  0  0  0  0  0  0  0  0  0
  -11.0007   29.5687  -25.9656 C   0  0  0  0  0  0  0  0  0  0  0  0
  -11.0980   28.7626  -26.8929 O   0  0  0  0  0  0  0  0  0  0  0  0
  -10.9704   31.0735  -26.2021 C   0  0  0  0  0  0  0  0  0  0  0  0
   -3.5912   32.5769  -26.4839 C   0  0  0  0  0  0  0  0  0  0  0  0
  1  2  1  0
  2  3  1  0
  3  4  2  0
  4  5  1  0
  5  6  2  0
  6  7  1  0
  7  8  1  0
  6  9  1  0
  9 10  1  0
 10 11  1  0
 11 12  1  0
 12 13  1  0
 13 14  2  0
 14 15  1  0
 15 16  2  0
 16 17  1  0
 17 18  1  0
 17 19  2  0
 17 20  2  0
 16 21  1  0
 21 22  2  0
 22 23  1  0
 23 24  1  0
 24 25  1  0
 25 26  1  0
 26 27  1  0
 27 28  2  0
 27 29  1  0
  9 30  2  0
 30  3  1  0
 22 13  1  0
 29 23  1  0
M  END
$$$$
