
     RDKit          3D

 19 20  0  0  0  0  0  0  0  0999 V2000
   -4.4812    1.4085   42.3140 C   0  0  0  0  0  0  0  0  0  0  0  0
   -4.7380    0.4960   41.2333 N   0  0  0  0  0  0  0  0  0  0  0  0
   -3.6959   -0.0940   40.5498 C   0  0  0  0  0  0  0  0  0  0  0  0
   -2.5174    0.2179   40.6966 O   0  0  0  0  0  0  0  0  0  0  0  0
   -4.1471   -1.1647   39.5772 C   0  0  0  0  0  0  0  0  0  0  0  0
   -4.3041   -2.5217   40.2273 C   0  0  0  0  0  0  0  0  0  0  0  0
   -3.2585   -3.4513   40.0808 C   0  0  0  0  0  0  0  0  0  0  0  0
   -3.3434   -4.7276   40.6388 C   0  0  0  0  0  0  0  0  0  0  0  0
   -4.4802   -5.0971   41.3473 C   0  0  0  0  0  0  0  0  0  0  0  0
   -4.7074   -6.3168   41.9254 O   0  0  0  0  0  0  0  0  0  0  0  0
   -3.6699   -7.2830   41.8131 C   0  0  0  0  0  0  0  0  0  0  0  0
   -5.5177   -4.1715   41.5091 C   0  0  0  0  0  0  0  0  0  0  0  0
   -5.4448   -2.8677   40.9855 C   0  0  0  0  0  0  0  0  0  0  0  0
   -6.4919   -1.9270   41.1549 N   0  0  0  0  0  0  0  0  0  0  0  0
   -7.5311   -2.1100   40.1272 C   0  0  0  0  0  0  0  0  0  0  0  0
   -8.3648   -0.8284   40.0418 C   0  0  0  0  0  0  0  0  0  0  0  0
   -8.5801   -0.1571   41.4014 C   0  0  0  0  0  0  0  0  0  0  0  0
   -8.4073   -1.1426   42.5496 C   0  0  0  0  0  0  0  0  0  0  0  0
   -7.0327   -1.8259   42.5330 C   0  0  0  0  0  0  0  0  0  0  0  0
  1  2  1  0
  2  3  1  0
  3  4  2  0
  3  5  1  0
  5  6  1  0
  6  7  2  0
  7  8  1  0
  8  9  2  0
  9 10  1  0
 10 11  1  0
  9 12  1  0
 12 13  2  0
 13 14  1  0
 14 15  1  0
 15 16  1  0
 16 17  1  0
 17 18  1  0
 18 19  1  0
 13  6  1  0
 19 14  1  0
M  END
$$$$
