
     RDKit          3D

 30 33  0  0  0  0  0  0  0  0999 V2000
  -18.4942    3.4888  -18.2733 N   0  0  0  0  0  0  0  0  0  0  0  0
  -18.0842    3.5766  -16.9282 C   0  0  0  0  0  0  0  0  0  0  0  0
  -18.0961    2.4048  -16.1596 C   0  0  0  0  0  0  0  0  0  0  0  0
  -17.7931    2.4705  -14.8072 C   0  0  0  0  0  0  0  0  0  0  0  0
  -17.5195    3.6180  -14.1566 N   0  0  0  0  0  0  0  0  0  0  0  0
  -17.5788    4.7493  -14.9009 C   0  0  0  0  0  0  0  0  0  0  0  0
  -17.8626    4.8118  -16.2763 C   0  0  0  0  0  0  0  0  0  0  0  0
  -17.8692    6.0804  -16.8940 N   0  0  0  0  0  0  0  0  0  0  0  0
  -19.2291    6.4710  -17.3475 C   0  0  0  0  0  0  0  0  0  0  0  0
  -19.2008    7.8661  -17.9466 C   0  0  0  0  0  0  0  0  0  0  0  0
  -20.1555    8.3407  -18.5655 O   0  0  0  0  0  0  0  0  0  0  0  0
  -17.9602    8.6776  -17.6754 C   0  0  0  0  0  0  0  0  0  0  0  0
  -16.6961    7.9038  -18.0432 C   0  0  0  0  0  0  0  0  0  0  0  0
  -16.7848    6.3638  -17.8644 C   0  0  0  0  0  0  0  0  0  0  0  0
  -15.3976    5.8098  -17.4345 C   0  0  0  0  0  0  0  0  0  0  0  0
  -14.3423    6.0902  -18.3961 N   0  0  0  0  0  0  0  0  0  0  0  0
  -13.9326    5.1424  -19.3109 C   0  0  0  0  0  0  0  0  0  0  0  0
  -14.4928    4.0687  -19.5024 O   0  0  0  0  0  0  0  0  0  0  0  0
  -12.7301    5.5270  -20.0760 C   0  0  0  0  0  0  0  0  0  0  0  0
  -13.0058    6.3221  -21.2018 C   0  0  0  0  0  0  0  0  0  0  0  0
  -11.9534    6.7297  -21.9865 C   0  0  0  0  0  0  0  0  0  0  0  0
  -10.6801    6.4092  -21.7144 N   0  0  0  0  0  0  0  0  0  0  0  0
  -10.4595    5.6263  -20.6226 C   0  0  0  0  0  0  0  0  0  0  0  0
  -11.4221    5.1200  -19.7371 C   0  0  0  0  0  0  0  0  0  0  0  0
  -11.0509    4.3314  -18.6555 N   0  0  0  0  0  0  0  0  0  0  0  0
  -11.8447    4.2482  -17.4213 C   0  0  0  0  0  0  0  0  0  0  0  0
  -11.0105    3.7240  -16.2434 C   0  0  0  0  0  0  0  0  0  0  0  0
   -9.6059    4.3195  -16.2661 C   0  0  0  0  0  0  0  0  0  0  0  0
   -8.8811    4.0017  -17.5796 C   0  0  0  0  0  0  0  0  0  0  0  0
   -9.8320    3.5143  -18.6733 C   0  0  0  0  0  0  0  0  0  0  0  0
  1  2  1  0
  2  3  2  0
  3  4  1  0
  4  5  2  0
  5  6  1  0
  6  7  2  0
  7  8  1  0
  8  9  1  0
  9 10  1  0
 10 11  2  0
 10 12  1  0
 12 13  1  0
 13 14  1  0
 14 15  1  0
 15 16  1  0
 16 17  1  0
 17 18  2  0
 17 19  1  0
 19 20  2  0
 20 21  1  0
 21 22  2  0
 22 23  1  0
 23 24  2  0
 24 25  1  0
 25 26  1  0
 26 27  1  0
 27 28  1  0
 28 29  1  0
 29 30  1  0
  7  2  1  0
 14  8  1  0
 24 19  1  0
 30 25  1  0
M  END
$$$$
