
     RDKit          3D

 31 34  0  0  0  0  0  0  0  0999 V2000
   -1.1782  -12.9977    9.8967 N   0  0  0  0  0  0  0  0  0  0  0  0
   -1.7390  -12.9192    8.5951 C   0  0  0  0  0  0  0  0  0  0  0  0
   -2.4126  -11.7661    8.2041 C   0  0  0  0  0  0  0  0  0  0  0  0
   -3.0215  -11.7545    6.9626 C   0  0  0  0  0  0  0  0  0  0  0  0
   -3.0208  -12.8043    6.1132 N   0  0  0  0  0  0  0  0  0  0  0  0
   -2.3775  -13.9196    6.5281 C   0  0  0  0  0  0  0  0  0  0  0  0
   -1.7190  -14.0503    7.7535 C   0  0  0  0  0  0  0  0  0  0  0  0
   -1.0774  -15.2281    8.2052 N   0  0  0  0  0  0  0  0  0  0  0  0
    0.0013  -15.7071    7.2910 C   0  0  0  0  0  0  0  0  0  0  0  0
    1.3698  -15.2202    7.8510 C   0  0  0  0  0  0  0  0  0  0  0  0
    2.5184  -15.6524    7.0429 N   0  0  0  0  0  0  0  0  0  0  0  0
    3.7476  -14.9795    7.5060 C   0  0  0  0  0  0  0  0  0  0  0  0
    4.9891  -15.4382    6.7602 C   0  0  0  0  0  0  0  0  0  0  0  0
    4.8994  -15.7696    5.3915 C   0  0  0  0  0  0  0  0  0  0  0  0
    6.0125  -16.2126    4.6802 C   0  0  0  0  0  0  0  0  0  0  0  0
    7.2303  -16.3111    5.3319 C   0  0  0  0  0  0  0  0  0  0  0  0
    8.3510  -16.7362    4.6796 O   0  0  0  0  0  0  0  0  0  0  0  0
    7.3529  -15.9614    6.6730 C   0  0  0  0  0  0  0  0  0  0  0  0
    6.2466  -15.5046    7.4113 C   0  0  0  0  0  0  0  0  0  0  0  0
    6.3799  -15.0888    8.7485 N   0  0  0  0  0  0  0  0  0  0  0  0
    6.3685  -13.6211    8.9130 C   0  0  0  0  0  0  0  0  0  0  0  0
    7.4656  -13.1453    9.8632 C   0  0  0  0  0  0  0  0  0  0  0  0
    7.4247  -13.8803   11.2017 C   0  0  0  0  0  0  0  0  0  0  0  0
    7.1214  -15.3732   11.0510 C   0  0  0  0  0  0  0  0  0  0  0  0
    7.2956  -15.8470    9.6096 C   0  0  0  0  0  0  0  0  0  0  0  0
   -0.0438  -17.2417    7.1298 C   0  0  0  0  0  0  0  0  0  0  0  0
   -1.4318  -17.7179    6.7077 C   0  0  0  0  0  0  0  0  0  0  0  0
   -2.4909  -17.1783    7.6427 C   0  0  0  0  0  0  0  0  0  0  0  0
   -3.6817  -17.4553    7.4926 O   0  0  0  0  0  0  0  0  0  0  0  0
   -1.9790  -16.2534    8.7630 C   0  0  0  0  0  0  0  0  0  0  0  0
   -2.9938  -15.6818    9.5580 O   0  0  0  0  0  0  0  0  0  0  0  0
  1  2  1  0
  2  3  2  0
  3  4  1  0
  4  5  2  0
  5  6  1  0
  6  7  2  0
  7  8  1  0
  8  9  1  0
  9 10  1  0
 10 11  1  0
 11 12  1  0
 12 13  1  0
 13 14  2  0
 14 15  1  0
 15 16  2  0
 16 17  1  0
 16 18  1  0
 18 19  2  0
 19 20  1  0
 20 21  1  0
 21 22  1  0
 22 23  1  0
 23 24  1  0
 24 25  1  0
  9 26  1  0
 26 27  1  0
 27 28  1  0
 28 29  2  0
 28 30  1  0
 30 31  1  0
  7  2  1  0
 30  8  1  0
 19 13  1  0
 25 20  1  0
M  END
$$$$
