
     RDKit          3D

 28 31  0  0  0  0  0  0  0  0999 V2000
   10.1907  -14.8943  -12.4508 N   0  0  0  0  0  0  0  0  0  0  0  0
    9.6788  -13.3134  -12.7969 S   0  0  0  0  0  0  0  0  0  0  0  0
   10.8916  -12.5283  -12.6678 O   0  0  0  0  0  0  0  0  0  0  0  0
    8.5121  -13.1079  -11.9629 O   0  0  0  0  0  0  0  0  0  0  0  0
    9.1287  -13.4193  -14.4832 C   0  0  0  0  0  0  0  0  0  0  0  0
    8.4427  -14.5924  -14.8522 C   0  0  0  0  0  0  0  0  0  0  0  0
    8.0418  -14.7354  -16.1683 C   0  0  0  0  0  0  0  0  0  0  0  0
    8.2610  -13.8006  -17.1149 N   0  0  0  0  0  0  0  0  0  0  0  0
    8.9065  -12.6714  -16.7188 C   0  0  0  0  0  0  0  0  0  0  0  0
    9.3817  -12.4038  -15.4239 C   0  0  0  0  0  0  0  0  0  0  0  0
   10.0302  -11.2070  -15.1136 N   0  0  0  0  0  0  0  0  0  0  0  0
    9.1870  -10.2037  -14.4421 C   0  0  0  0  0  0  0  0  0  0  0  0
   10.0225   -8.9855  -14.0635 C   0  0  0  0  0  0  0  0  0  0  0  0
   10.6225   -8.3162  -15.3003 C   0  0  0  0  0  0  0  0  0  0  0  0
   10.8137   -9.2916  -16.4648 C   0  0  0  0  0  0  0  0  0  0  0  0
   11.0993  -10.7236  -16.0001 C   0  0  0  0  0  0  0  0  0  0  0  0
   12.3328  -10.7281  -15.2831 O   0  0  0  0  0  0  0  0  0  0  0  0
   12.9176  -12.0197  -15.2780 C   0  0  0  0  0  0  0  0  0  0  0  0
   13.9712  -12.0381  -14.2776 N   0  0  0  0  0  0  0  0  0  0  0  0
   14.6614  -13.1901  -14.1240 C   0  0  0  0  0  0  0  0  0  0  0  0
   14.7876  -13.9132  -13.0371 N   0  0  0  0  0  0  0  0  0  0  0  0
   15.5865  -14.9754  -13.3923 C   0  0  0  0  0  0  0  0  0  0  0  0
   16.0260  -16.0673  -12.6262 C   0  0  0  0  0  0  0  0  0  0  0  0
   16.8511  -17.0269  -13.2336 C   0  0  0  0  0  0  0  0  0  0  0  0
   17.2278  -16.9029  -14.5728 C   0  0  0  0  0  0  0  0  0  0  0  0
   16.7934  -15.8212  -15.3554 C   0  0  0  0  0  0  0  0  0  0  0  0
   15.9754  -14.8811  -14.7240 C   0  0  0  0  0  0  0  0  0  0  0  0
   15.3928  -13.7160  -15.1575 N   0  0  0  0  0  0  0  0  0  0  0  0
  1  2  1  0
  2  3  2  0
  2  4  2  0
  2  5  1  0
  5  6  2  0
  6  7  1  0
  7  8  2  0
  8  9  1  0
  9 10  2  0
 10 11  1  0
 11 12  1  0
 12 13  1  0
 13 14  1  0
 14 15  1  0
 15 16  1  0
 16 17  1  0
 17 18  1  0
 18 19  1  0
 19 20  1  0
 20 21  2  0
 21 22  1  0
 22 23  2  0
 23 24  1  0
 24 25  2  0
 25 26  1  0
 26 27  2  0
 27 28  1  0
 10  5  1  0
 16 11  1  0
 28 20  1  0
 27 22  1  0
M  END
$$$$
