
     RDKit          3D

 16 17  0  0  0  0  0  0  0  0999 V2000
  -35.0971    2.0237   11.2206 N   0  0  0  0  0  0  0  0  0  0  0  0
  -36.0013    1.8918   12.3629 C   0  0  0  0  0  0  0  0  0  0  0  0
  -37.4141    1.5733   11.8899 C   0  0  0  0  0  0  0  0  0  0  0  0
  -38.3759    1.4190   13.0541 C   0  0  0  0  0  0  0  0  0  0  0  0
  -38.0503    1.6797   14.2116 O   0  0  0  0  0  0  0  0  0  0  0  0
  -39.7721    0.9495   12.6923 C   0  0  0  0  0  0  0  0  0  0  0  0
  -40.6655    0.8038   13.9202 C   0  0  0  0  0  0  0  0  0  0  0  0
  -42.0403    0.3405   13.5540 C   0  0  0  0  0  0  0  0  0  0  0  0
  -42.4894   -0.9658   13.5495 C   0  0  0  0  0  0  0  0  0  0  0  0
  -43.7991   -0.9694   13.1522 N   0  0  0  0  0  0  0  0  0  0  0  0
  -44.2207    0.3126   12.8892 C   0  0  0  0  0  0  0  0  0  0  0  0
  -45.4675    0.7814   12.4575 C   0  0  0  0  0  0  0  0  0  0  0  0
  -45.6134    2.1594   12.2739 C   0  0  0  0  0  0  0  0  0  0  0  0
  -44.5542    3.0310   12.5141 C   0  0  0  0  0  0  0  0  0  0  0  0
  -43.3144    2.5450   12.9453 C   0  0  0  0  0  0  0  0  0  0  0  0
  -43.1396    1.1588   13.1370 C   0  0  0  0  0  0  0  0  0  0  0  0
  1  2  1  0
  2  3  1  0
  3  4  1  0
  4  5  2  0
  4  6  1  0
  6  7  1  0
  7  8  1  0
  8  9  2  0
  9 10  1  0
 10 11  1  0
 11 12  2  0
 12 13  1  0
 13 14  2  0
 14 15  1  0
 15 16  2  0
 16  8  1  0
 16 11  1  0
M  END
$$$$
