
     RDKit          3D

 22 24  0  0  0  0  0  0  0  0999 V2000
   18.8764   -9.5710  -21.7138 C   0  0  0  0  0  0  0  0  0  0  0  0
   19.9071   -8.6005  -21.3907 N   0  0  0  0  0  0  0  0  0  0  0  0
   19.4597   -7.2119  -21.5082 C   0  0  0  0  0  0  0  0  0  0  0  0
   18.4652   -6.7914  -20.3972 C   0  0  0  0  0  0  0  0  0  0  0  0
   17.7889   -5.4842  -20.7037 C   0  0  0  0  0  0  0  0  0  0  0  0
   18.1908   -4.2344  -20.2748 C   0  0  0  0  0  0  0  0  0  0  0  0
   17.3216   -3.3057  -20.7770 N   0  0  0  0  0  0  0  0  0  0  0  0
   16.3501   -3.9219  -21.5306 C   0  0  0  0  0  0  0  0  0  0  0  0
   15.2680   -3.3735  -22.2295 C   0  0  0  0  0  0  0  0  0  0  0  0
   14.4301   -4.2532  -22.9207 C   0  0  0  0  0  0  0  0  0  0  0  0
   14.6671   -5.6255  -22.9116 C   0  0  0  0  0  0  0  0  0  0  0  0
   15.7541   -6.1571  -22.2078 C   0  0  0  0  0  0  0  0  0  0  0  0
   16.6150   -5.2914  -21.5016 C   0  0  0  0  0  0  0  0  0  0  0  0
   20.6130   -6.3785  -21.3664 O   0  0  0  0  0  0  0  0  0  0  0  0
   21.3048   -6.1992  -22.5940 C   0  0  0  0  0  0  0  0  0  0  0  0
   22.4894   -5.3627  -22.3951 N   0  0  0  0  0  0  0  0  0  0  0  0
   23.1069   -5.0230  -23.6816 C   0  0  0  0  0  0  0  0  0  0  0  0
   24.5443   -4.5014  -23.5510 C   0  0  0  0  0  0  0  0  0  0  0  0
   24.8232   -3.9324  -22.1682 C   0  0  0  0  0  0  0  0  0  0  0  0
   24.5620   -5.0185  -21.1481 C   0  0  0  0  0  0  0  0  0  0  0  0
   25.2491   -5.1163  -20.1300 O   0  0  0  0  0  0  0  0  0  0  0  0
   23.4328   -5.9946  -21.4604 C   0  0  0  0  0  0  0  0  0  0  0  0
  1  2  1  0
  2  3  1  0
  3  4  1  0
  4  5  1  0
  5  6  2  0
  6  7  1  0
  7  8  1  0
  8  9  2  0
  9 10  1  0
 10 11  2  0
 11 12  1  0
 12 13  2  0
  3 14  1  0
 14 15  1  0
 15 16  1  0
 16 17  1  0
 17 18  1  0
 18 19  1  0
 19 20  1  0
 20 21  2  0
 20 22  1  0
 13  5  1  0
 22 16  1  0
 13  8  1  0
M  END
$$$$
