
     RDKit          3D

 19 20  0  0  0  0  0  0  0  0999 V2000
   35.5945   15.8164  -21.7209 N   0  0  0  0  0  0  0  0  0  0  0  0
   34.9552   17.1312  -21.7325 C   0  0  0  0  0  0  0  0  0  0  0  0
   34.3052   17.4782  -20.4004 C   0  0  0  0  0  0  0  0  0  0  0  0
   32.9761   16.7769  -20.2076 C   0  0  0  0  0  0  0  0  0  0  0  0
   32.8181   15.9600  -19.2971 O   0  0  0  0  0  0  0  0  0  0  0  0
   31.8628   17.1061  -21.1878 C   0  0  0  0  0  0  0  0  0  0  0  0
   30.4853   16.9116  -20.5684 C   0  0  0  0  0  0  0  0  0  0  0  0
   30.2156   17.9080  -19.4544 C   0  0  0  0  0  0  0  0  0  0  0  0
   30.9491   18.8813  -19.2664 O   0  0  0  0  0  0  0  0  0  0  0  0
   28.9817   17.6632  -18.6060 C   0  0  0  0  0  0  0  0  0  0  0  0
   27.7314   17.9468  -19.3677 C   0  0  0  0  0  0  0  0  0  0  0  0
   27.1919   19.1939  -19.6093 C   0  0  0  0  0  0  0  0  0  0  0  0
   26.0523   19.0347  -20.3488 N   0  0  0  0  0  0  0  0  0  0  0  0
   25.8388   17.7062  -20.6120 C   0  0  0  0  0  0  0  0  0  0  0  0
   24.8136   17.0877  -21.3372 C   0  0  0  0  0  0  0  0  0  0  0  0
   24.8481   15.6920  -21.4522 C   0  0  0  0  0  0  0  0  0  0  0  0
   25.8682   14.9517  -20.8633 C   0  0  0  0  0  0  0  0  0  0  0  0
   26.8828   15.5863  -20.1363 C   0  0  0  0  0  0  0  0  0  0  0  0
   26.8724   16.9937  -20.0060 C   0  0  0  0  0  0  0  0  0  0  0  0
  1  2  1  0
  2  3  1  0
  3  4  1  0
  4  5  2  0
  4  6  1  0
  6  7  1  0
  7  8  1  0
  8  9  2  0
  8 10  1  0
 10 11  1  0
 11 12  2  0
 12 13  1  0
 13 14  1  0
 14 15  2  0
 15 16  1  0
 16 17  2  0
 17 18  1  0
 18 19  2  0
 19 11  1  0
 19 14  1  0
M  END
$$$$
