
     RDKit          3D

 29 32  0  0  0  0  0  0  0  0999 V2000
   34.8517    6.4033  -30.9512 N   0  0  0  0  0  0  0  0  0  0  0  0
   35.4205    5.8022  -32.1520 C   0  0  0  0  0  0  0  0  0  0  0  0
   34.4143    5.8091  -33.3101 C   0  0  0  0  0  0  0  0  0  0  0  0
   33.1582    4.9470  -33.0812 C   0  0  0  0  0  0  0  0  0  0  0  0
   33.4298    3.4673  -32.8824 C   0  0  0  0  0  0  0  0  0  0  0  0
   33.2665    2.9383  -31.5914 C   0  0  0  0  0  0  0  0  0  0  0  0
   33.5234    1.5943  -31.3770 C   0  0  0  0  0  0  0  0  0  0  0  0
   33.9168    0.7422  -32.3490 N   0  0  0  0  0  0  0  0  0  0  0  0
   34.0361    1.2679  -33.5918 C   0  0  0  0  0  0  0  0  0  0  0  0
   33.8498    2.6145  -33.9312 C   0  0  0  0  0  0  0  0  0  0  0  0
   34.0020    3.1073  -35.2225 N   0  0  0  0  0  0  0  0  0  0  0  0
   32.7428    3.0917  -36.0085 C   0  0  0  0  0  0  0  0  0  0  0  0
   32.7117    1.9766  -37.0461 C   0  0  0  0  0  0  0  0  0  0  0  0
   31.6644    1.4129  -37.4124 O   0  0  0  0  0  0  0  0  0  0  0  0
   33.9996    1.7226  -37.8017 C   0  0  0  0  0  0  0  0  0  0  0  0
   35.2132    1.7079  -36.8927 C   0  0  0  0  0  0  0  0  0  0  0  0
   35.2547    2.9577  -36.0076 C   0  0  0  0  0  0  0  0  0  0  0  0
   36.5909    3.0935  -35.2187 C   0  0  0  0  0  0  0  0  0  0  0  0
   37.0185    1.8866  -34.4969 N   0  0  0  0  0  0  0  0  0  0  0  0
   38.4244    1.9727  -34.0677 C   0  0  0  0  0  0  0  0  0  0  0  0
   38.6839    3.0235  -33.0324 C   0  0  0  0  0  0  0  0  0  0  0  0
   38.8989    4.3179  -33.2427 N   0  0  0  0  0  0  0  0  0  0  0  0
   39.2874    4.8335  -32.0312 C   0  0  0  0  0  0  0  0  0  0  0  0
   39.7178    6.1322  -31.7037 C   0  0  0  0  0  0  0  0  0  0  0  0
   40.1141    6.3945  -30.3846 C   0  0  0  0  0  0  0  0  0  0  0  0
   40.0746    5.3894  -29.4116 C   0  0  0  0  0  0  0  0  0  0  0  0
   39.6373    4.0909  -29.7196 C   0  0  0  0  0  0  0  0  0  0  0  0
   39.2503    3.8529  -31.0435 C   0  0  0  0  0  0  0  0  0  0  0  0
   38.8040    2.7260  -31.6958 N   0  0  0  0  0  0  0  0  0  0  0  0
  1  2  1  0
  2  3  1  0
  3  4  1  0
  4  5  1  0
  5  6  2  0
  6  7  1  0
  7  8  2  0
  8  9  1  0
  9 10  2  0
 10 11  1  0
 11 12  1  0
 12 13  1  0
 13 14  2  0
 13 15  1  0
 15 16  1  0
 16 17  1  0
 17 18  1  0
 18 19  1  0
 19 20  1  0
 20 21  1  0
 21 22  2  0
 22 23  1  0
 23 24  2  0
 24 25  1  0
 25 26  2  0
 26 27  1  0
 27 28  2  0
 28 29  1  0
 10  5  1  0
 17 11  1  0
 29 21  1  0
 28 23  1  0
M  END
$$$$
