
     RDKit          3D

 20 21  0  0  0  0  0  0  0  0999 V2000
   -2.5443   10.9645    3.4523 C   0  0  0  0  0  0  0  0  0  0  0  0
   -2.3996   12.2878    4.0565 N   0  0  0  0  0  0  0  0  0  0  0  0
   -2.7873   13.3512    3.1163 C   0  0  0  0  0  0  0  0  0  0  0  0
   -4.2924   13.3587    2.8722 C   0  0  0  0  0  0  0  0  0  0  0  0
   -4.7436   13.0842    1.7576 O   0  0  0  0  0  0  0  0  0  0  0  0
   -5.1656   13.6754    4.0768 C   0  0  0  0  0  0  0  0  0  0  0  0
   -6.5007   14.2930    3.7293 C   0  0  0  0  0  0  0  0  0  0  0  0
   -6.5059   15.6738    3.4399 C   0  0  0  0  0  0  0  0  0  0  0  0
   -7.6875   16.3444    3.1261 C   0  0  0  0  0  0  0  0  0  0  0  0
   -8.8941   15.6570    3.0880 C   0  0  0  0  0  0  0  0  0  0  0  0
   -9.9830   16.4221    2.7722 O   0  0  0  0  0  0  0  0  0  0  0  0
  -11.2285   15.7443    2.6646 C   0  0  0  0  0  0  0  0  0  0  0  0
   -8.8989   14.2903    3.3660 C   0  0  0  0  0  0  0  0  0  0  0  0
   -7.7166   13.5835    3.6807 C   0  0  0  0  0  0  0  0  0  0  0  0
   -7.8834   12.2154    3.9287 N   0  0  0  0  0  0  0  0  0  0  0  0
   -7.1800   11.2974    3.0285 C   0  0  0  0  0  0  0  0  0  0  0  0
   -7.8310    9.9166    3.1268 C   0  0  0  0  0  0  0  0  0  0  0  0
   -7.8688    9.4286    4.5753 C   0  0  0  0  0  0  0  0  0  0  0  0
   -8.5478   10.4563    5.4809 C   0  0  0  0  0  0  0  0  0  0  0  0
   -7.9025   11.8367    5.3436 C   0  0  0  0  0  0  0  0  0  0  0  0
  1  2  1  0
  2  3  1  0
  3  4  1  0
  4  5  2  0
  4  6  1  0
  6  7  1  0
  7  8  2  0
  8  9  1  0
  9 10  2  0
 10 11  1  0
 11 12  1  0
 10 13  1  0
 13 14  2  0
 14 15  1  0
 15 16  1  0
 16 17  1  0
 17 18  1  0
 18 19  1  0
 19 20  1  0
 14  7  1  0
 20 15  1  0
M  END
$$$$
