
     RDKit          3D

 15 16  0  0  0  0  0  0  0  0999 V2000
  -27.5147    2.5120   11.8176 N   0  0  0  0  0  0  0  0  0  0  0  0
  -28.6495    2.1544   10.9749 C   0  0  0  0  0  0  0  0  0  0  0  0
  -28.5778    0.6871   10.5523 C   0  0  0  0  0  0  0  0  0  0  0  0
  -29.7153    0.2936    9.6120 C   0  0  0  0  0  0  0  0  0  0  0  0
  -31.0492    0.2294   10.3374 C   0  0  0  0  0  0  0  0  0  0  0  0
  -31.2480   -0.6901   11.1343 O   0  0  0  0  0  0  0  0  0  0  0  0
  -32.0624    1.2636   10.0976 C   0  0  0  0  0  0  0  0  0  0  0  0
  -31.9340    2.3817    9.2899 C   0  0  0  0  0  0  0  0  0  0  0  0
  -33.1009    3.0982    9.3441 N   0  0  0  0  0  0  0  0  0  0  0  0
  -34.0029    2.4764   10.1715 C   0  0  0  0  0  0  0  0  0  0  0  0
  -35.3077    2.8474   10.5196 C   0  0  0  0  0  0  0  0  0  0  0  0
  -36.0067    2.0156   11.3983 C   0  0  0  0  0  0  0  0  0  0  0  0
  -35.4216    0.8601   11.9073 C   0  0  0  0  0  0  0  0  0  0  0  0
  -34.1161    0.5054   11.5482 C   0  0  0  0  0  0  0  0  0  0  0  0
  -33.3841    1.3253   10.6617 C   0  0  0  0  0  0  0  0  0  0  0  0
  1  2  1  0
  2  3  1  0
  3  4  1  0
  4  5  1  0
  5  6  2  0
  5  7  1  0
  7  8  2  0
  8  9  1  0
  9 10  1  0
 10 11  2  0
 11 12  1  0
 12 13  2  0
 13 14  1  0
 14 15  2  0
 15  7  1  0
 15 10  1  0
M  END
$$$$
