
     RDKit          3D

 19 20  0  0  0  0  0  0  0  0999 V2000
   14.9418    8.2247  -14.9982 N   0  0  0  0  0  0  0  0  0  0  0  0
   15.4489    7.7070  -16.2637 C   0  0  0  0  0  0  0  0  0  0  0  0
   15.4789    8.7860  -17.3359 C   0  0  0  0  0  0  0  0  0  0  0  0
   14.0868    9.1664  -17.7961 C   0  0  0  0  0  0  0  0  0  0  0  0
   13.3300    8.3462  -18.3198 O   0  0  0  0  0  0  0  0  0  0  0  0
   13.6582   10.5934  -17.6063 C   0  0  0  0  0  0  0  0  0  0  0  0
   13.2225   10.9005  -16.2005 C   0  0  0  0  0  0  0  0  0  0  0  0
   14.0159   11.3766  -15.3856 O   0  0  0  0  0  0  0  0  0  0  0  0
   11.7922   10.5846  -15.8238 C   0  0  0  0  0  0  0  0  0  0  0  0
   11.7002    9.2788  -15.0488 C   0  0  0  0  0  0  0  0  0  0  0  0
   10.2799    8.8923  -14.7840 C   0  0  0  0  0  0  0  0  0  0  0  0
    9.5333    9.2122  -13.6673 C   0  0  0  0  0  0  0  0  0  0  0  0
    8.2830    8.6760  -13.8190 N   0  0  0  0  0  0  0  0  0  0  0  0
    8.1913    8.0109  -15.0192 C   0  0  0  0  0  0  0  0  0  0  0  0
    7.1144    7.3219  -15.5901 C   0  0  0  0  0  0  0  0  0  0  0  0
    7.3135    6.7316  -16.8417 C   0  0  0  0  0  0  0  0  0  0  0  0
    8.5407    6.8277  -17.4933 C   0  0  0  0  0  0  0  0  0  0  0  0
    9.6069    7.5205  -16.9084 C   0  0  0  0  0  0  0  0  0  0  0  0
    9.4318    8.1255  -15.6466 C   0  0  0  0  0  0  0  0  0  0  0  0
  1  2  1  0
  2  3  1  0
  3  4  1  0
  4  5  2  0
  4  6  1  0
  6  7  1  0
  7  8  2  0
  7  9  1  0
  9 10  1  0
 10 11  1  0
 11 12  2  0
 12 13  1  0
 13 14  1  0
 14 15  2  0
 15 16  1  0
 16 17  2  0
 17 18  1  0
 18 19  2  0
 19 11  1  0
 19 14  1  0
M  END
$$$$
