
     RDKit          3D

 19 20  0  0  0  0  0  0  0  0999 V2000
   -1.6528    6.1161    4.4745 N   0  0  0  0  0  0  0  0  0  0  0  0
   -2.7232    6.8994    3.8571 C   0  0  0  0  0  0  0  0  0  0  0  0
   -2.2926    8.3174    3.4911 C   0  0  0  0  0  0  0  0  0  0  0  0
   -1.3460    8.3701    2.3068 C   0  0  0  0  0  0  0  0  0  0  0  0
   -1.2038    7.4641    1.4922 O   0  0  0  0  0  0  0  0  0  0  0  0
   -0.6382    9.6500    2.0793 C   0  0  0  0  0  0  0  0  0  0  0  0
   -1.0436   10.3845    0.9540 C   0  0  0  0  0  0  0  0  0  0  0  0
   -0.5174   11.6518    0.7301 C   0  0  0  0  0  0  0  0  0  0  0  0
    0.3994   12.1744    1.6352 C   0  0  0  0  0  0  0  0  0  0  0  0
    1.0371   13.7532    1.3812 Cl  0  0  0  0  0  0  0  0  0  0  0  0
    0.8187   11.4302    2.7460 C   0  0  0  0  0  0  0  0  0  0  0  0
    0.3352   10.1331    2.9858 C   0  0  0  0  0  0  0  0  0  0  0  0
    0.7997    9.3518    4.0513 N   0  0  0  0  0  0  0  0  0  0  0  0
    1.2116    9.9746    5.3164 C   0  0  0  0  0  0  0  0  0  0  0  0
    2.7243   10.1710    5.3931 C   0  0  0  0  0  0  0  0  0  0  0  0
    3.4655    8.8640    5.1690 C   0  0  0  0  0  0  0  0  0  0  0  0
    3.0262    8.2517    3.8619 C   0  0  0  0  0  0  0  0  0  0  0  0
    3.8461    7.7920    3.0668 O   0  0  0  0  0  0  0  0  0  0  0  0
    1.5238    8.1146    3.6603 C   0  0  0  0  0  0  0  0  0  0  0  0
  1  2  1  0
  2  3  1  0
  3  4  1  0
  4  5  2  0
  4  6  1  0
  6  7  2  0
  7  8  1  0
  8  9  2  0
  9 10  1  0
  9 11  1  0
 11 12  2  0
 12 13  1  0
 13 14  1  0
 14 15  1  0
 15 16  1  0
 16 17  1  0
 17 18  2  0
 17 19  1  0
 12  6  1  0
 19 13  1  0
M  END
$$$$
