
     RDKit          3D

 23 25  0  0  0  0  0  0  0  0999 V2000
   28.6957   -1.0268  -15.7393 N   0  0  0  0  0  0  0  0  0  0  0  0
   28.1449    0.1899  -16.3268 C   0  0  0  0  0  0  0  0  0  0  0  0
   29.0541    0.7897  -17.4008 C   0  0  0  0  0  0  0  0  0  0  0  0
   29.1481   -0.0711  -18.6658 C   0  0  0  0  0  0  0  0  0  0  0  0
   30.0950    0.5242  -19.6892 C   0  0  0  0  0  0  0  0  0  0  0  0
   29.6721    1.6568  -20.4049 C   0  0  0  0  0  0  0  0  0  0  0  0
   30.5414    2.2571  -21.2992 C   0  0  0  0  0  0  0  0  0  0  0  0
   31.7914    1.8193  -21.5301 N   0  0  0  0  0  0  0  0  0  0  0  0
   32.1832    0.7280  -20.8260 C   0  0  0  0  0  0  0  0  0  0  0  0
   31.3954    0.0205  -19.9063 C   0  0  0  0  0  0  0  0  0  0  0  0
   31.8279   -1.1500  -19.2523 N   0  0  0  0  0  0  0  0  0  0  0  0
   31.3646   -2.3646  -19.9502 C   0  0  0  0  0  0  0  0  0  0  0  0
   31.3775   -3.5246  -18.9658 C   0  0  0  0  0  0  0  0  0  0  0  0
   30.6884   -4.5323  -19.1261 O   0  0  0  0  0  0  0  0  0  0  0  0
   32.2987   -3.3769  -17.7770 C   0  0  0  0  0  0  0  0  0  0  0  0
   33.5423   -2.6126  -18.2145 C   0  0  0  0  0  0  0  0  0  0  0  0
   33.2320   -1.1870  -18.7749 C   0  0  0  0  0  0  0  0  0  0  0  0
   33.6624   -0.1281  -17.8573 N   0  0  0  0  0  0  0  0  0  0  0  0
   33.0189   -0.1407  -16.5511 C   0  0  0  0  0  0  0  0  0  0  0  0
   33.1758    1.2277  -15.8781 C   0  0  0  0  0  0  0  0  0  0  0  0
   34.5541    1.8579  -16.0963 C   0  0  0  0  0  0  0  0  0  0  0  0
   35.5749    0.8200  -16.5416 C   0  0  0  0  0  0  0  0  0  0  0  0
   35.1093    0.0850  -17.8056 C   0  0  0  0  0  0  0  0  0  0  0  0
  1  2  1  0
  2  3  1  0
  3  4  1  0
  4  5  1  0
  5  6  2  0
  6  7  1  0
  7  8  2  0
  8  9  1  0
  9 10  2  0
 10 11  1  0
 11 12  1  0
 12 13  1  0
 13 14  2  0
 13 15  1  0
 15 16  1  0
 16 17  1  0
 17 18  1  0
 18 19  1  0
 19 20  1  0
 20 21  1  0
 21 22  1  0
 22 23  1  0
 10  5  1  0
 17 11  1  0
 23 18  1  0
M  END
$$$$
