
     RDKit          3D

 16 17  0  0  0  0  0  0  0  0999 V2000
  -14.0974    4.3568  -15.4641 N   0  0  0  0  0  0  0  0  0  0  0  0
  -13.5358    3.2660  -14.6789 C   0  0  0  0  0  0  0  0  0  0  0  0
  -14.6321    2.5783  -13.8685 C   0  0  0  0  0  0  0  0  0  0  0  0
  -14.0496    1.4962  -12.9684 C   0  0  0  0  0  0  0  0  0  0  0  0
  -15.1171    0.6076  -12.3602 C   0  0  0  0  0  0  0  0  0  0  0  0
  -15.1658   -0.5920  -12.6473 O   0  0  0  0  0  0  0  0  0  0  0  0
  -16.0929    1.2319  -11.3795 C   0  0  0  0  0  0  0  0  0  0  0  0
  -17.3986    1.5754  -12.0174 C   0  0  0  0  0  0  0  0  0  0  0  0
  -18.2655    0.6894  -12.6295 C   0  0  0  0  0  0  0  0  0  0  0  0
  -19.3504    1.3858  -13.0841 N   0  0  0  0  0  0  0  0  0  0  0  0
  -19.2229    2.7185  -12.7729 C   0  0  0  0  0  0  0  0  0  0  0  0
  -20.0852    3.7899  -13.0356 C   0  0  0  0  0  0  0  0  0  0  0  0
  -19.6973    5.0579  -12.5948 C   0  0  0  0  0  0  0  0  0  0  0  0
  -18.4955    5.2434  -11.9172 C   0  0  0  0  0  0  0  0  0  0  0  0
  -17.6459    4.1606  -11.6615 C   0  0  0  0  0  0  0  0  0  0  0  0
  -18.0104    2.8695  -12.0981 C   0  0  0  0  0  0  0  0  0  0  0  0
  1  2  1  0
  2  3  1  0
  3  4  1  0
  4  5  1  0
  5  6  2  0
  5  7  1  0
  7  8  1  0
  8  9  2  0
  9 10  1  0
 10 11  1  0
 11 12  2  0
 12 13  1  0
 13 14  2  0
 14 15  1  0
 15 16  2  0
 16  8  1  0
 16 11  1  0
M  END
$$$$
