
     RDKit          3D

 21 23  0  0  0  0  0  0  0  0999 V2000
    1.9850   -7.5637  -24.7481 N   0  0  0  0  0  0  0  0  0  0  0  0
    3.3355   -7.3488  -24.8378 C   0  0  0  0  0  0  0  0  0  0  0  0
    4.0584   -7.4553  -23.8581 O   0  0  0  0  0  0  0  0  0  0  0  0
    3.8344   -6.9745  -26.1844 C   0  0  0  0  0  0  0  0  0  0  0  0
    3.2249   -5.8488  -26.7628 C   0  0  0  0  0  0  0  0  0  0  0  0
    3.7009   -5.3940  -27.9722 C   0  0  0  0  0  0  0  0  0  0  0  0
    4.7244   -5.9711  -28.6186 N   0  0  0  0  0  0  0  0  0  0  0  0
    5.3021   -7.0485  -28.0180 C   0  0  0  0  0  0  0  0  0  0  0  0
    4.9101   -7.6398  -26.8097 C   0  0  0  0  0  0  0  0  0  0  0  0
    5.5368   -8.7764  -26.2976 N   0  0  0  0  0  0  0  0  0  0  0  0
    4.6847   -9.8800  -25.8274 C   0  0  0  0  0  0  0  0  0  0  0  0
    5.1686  -11.2328  -26.3588 C   0  0  0  0  0  0  0  0  0  0  0  0
    5.7290  -11.0883  -27.7665 C   0  0  0  0  0  0  0  0  0  0  0  0
    6.9227  -10.1242  -27.7950 C   0  0  0  0  0  0  0  0  0  0  0  0
    6.9420   -9.1196  -26.6020 C   0  0  0  0  0  0  0  0  0  0  0  0
    7.9635   -8.0518  -26.7612 N   0  0  0  0  0  0  0  0  0  0  0  0
    8.0234   -7.2429  -25.5247 C   0  0  0  0  0  0  0  0  0  0  0  0
    8.9880   -6.0648  -25.6666 C   0  0  0  0  0  0  0  0  0  0  0  0
   10.3836   -6.5394  -26.0432 C   0  0  0  0  0  0  0  0  0  0  0  0
   10.3167   -7.4321  -27.2733 C   0  0  0  0  0  0  0  0  0  0  0  0
    9.3009   -8.5642  -27.0956 C   0  0  0  0  0  0  0  0  0  0  0  0
  1  2  1  0
  2  3  2  0
  2  4  1  0
  4  5  2  0
  5  6  1  0
  6  7  2  0
  7  8  1  0
  8  9  2  0
  9 10  1  0
 10 11  1  0
 11 12  1  0
 12 13  1  0
 13 14  1  0
 14 15  1  0
 15 16  1  0
 16 17  1  0
 17 18  1  0
 18 19  1  0
 19 20  1  0
 20 21  1  0
  9  4  1  0
 15 10  1  0
 21 16  1  0
M  END
$$$$
