
     RDKit          3D

 22 24  0  0  0  0  0  0  0  0999 V2000
   37.2992   22.7700  -23.0040 N   0  0  0  0  0  0  0  0  0  0  0  0
   38.4538   21.8793  -22.9003 C   0  0  0  0  0  0  0  0  0  0  0  0
   38.4419   21.0751  -21.6163 C   0  0  0  0  0  0  0  0  0  0  0  0
   37.5171   20.0109  -21.5281 C   0  0  0  0  0  0  0  0  0  0  0  0
   37.4632   19.1957  -20.4026 C   0  0  0  0  0  0  0  0  0  0  0  0
   38.3310   19.4374  -19.3536 C   0  0  0  0  0  0  0  0  0  0  0  0
   38.2451   18.6236  -18.2617 O   0  0  0  0  0  0  0  0  0  0  0  0
   39.2555   20.4794  -19.4148 C   0  0  0  0  0  0  0  0  0  0  0  0
   39.3366   21.3200  -20.5425 C   0  0  0  0  0  0  0  0  0  0  0  0
   40.2609   22.3718  -20.5996 N   0  0  0  0  0  0  0  0  0  0  0  0
   39.6673   23.7179  -20.4705 C   0  0  0  0  0  0  0  0  0  0  0  0
   39.7156   24.1858  -19.0257 C   0  0  0  0  0  0  0  0  0  0  0  0
   38.9175   25.0003  -18.5605 O   0  0  0  0  0  0  0  0  0  0  0  0
   40.8239   23.6153  -18.1781 C   0  0  0  0  0  0  0  0  0  0  0  0
   42.0014   23.2601  -19.0737 C   0  0  0  0  0  0  0  0  0  0  0  0
   41.6610   22.1825  -20.1482 C   0  0  0  0  0  0  0  0  0  0  0  0
   42.7237   22.1895  -21.1854 N   0  0  0  0  0  0  0  0  0  0  0  0
   42.4227   21.2710  -22.2977 C   0  0  0  0  0  0  0  0  0  0  0  0
   42.5696   19.7888  -21.9414 C   0  0  0  0  0  0  0  0  0  0  0  0
   43.9552   19.4917  -21.3781 C   0  0  0  0  0  0  0  0  0  0  0  0
   44.3160   20.4652  -20.2607 C   0  0  0  0  0  0  0  0  0  0  0  0
   44.0845   21.9157  -20.6933 C   0  0  0  0  0  0  0  0  0  0  0  0
  1  2  1  0
  2  3  1  0
  3  4  2  0
  4  5  1  0
  5  6  2  0
  6  7  1  0
  6  8  1  0
  8  9  2  0
  9 10  1  0
 10 11  1  0
 11 12  1  0
 12 13  2  0
 12 14  1  0
 14 15  1  0
 15 16  1  0
 16 17  1  0
 17 18  1  0
 18 19  1  0
 19 20  1  0
 20 21  1  0
 21 22  1  0
  9  3  1  0
 16 10  1  0
 22 17  1  0
M  END
$$$$
