
     RDKit          3D

 20 21  0  0  0  0  0  0  0  0999 V2000
   17.0487  -33.9068   23.1367 C   0  0  0  0  0  0  0  0  0  0  0  0
   15.6971  -33.7052   22.6314 N   0  0  0  0  0  0  0  0  0  0  0  0
   14.7477  -34.5956   23.2988 C   0  0  0  0  0  0  0  0  0  0  0  0
   13.3258  -34.3861   22.7722 C   0  0  0  0  0  0  0  0  0  0  0  0
   12.7821  -32.9860   23.0723 C   0  0  0  0  0  0  0  0  0  0  0  0
   11.3446  -32.8457   22.6285 C   0  0  0  0  0  0  0  0  0  0  0  0
   11.0459  -32.4364   21.3265 C   0  0  0  0  0  0  0  0  0  0  0  0
    9.7204  -32.3233   20.9202 C   0  0  0  0  0  0  0  0  0  0  0  0
    8.6878  -32.6157   21.8157 C   0  0  0  0  0  0  0  0  0  0  0  0
    7.4083  -32.4544   21.3324 O   0  0  0  0  0  0  0  0  0  0  0  0
    6.8256  -31.2674   21.8716 C   0  0  0  0  0  0  0  0  0  0  0  0
    8.9441  -33.0813   23.1263 C   0  0  0  0  0  0  0  0  0  0  0  0
    7.8889  -33.4381   23.9906 N   0  0  0  0  0  0  0  0  0  0  0  0
    7.1362  -34.6161   23.5306 C   0  0  0  0  0  0  0  0  0  0  0  0
    5.7712  -34.6157   24.2149 C   0  0  0  0  0  0  0  0  0  0  0  0
    5.9136  -34.6624   25.7286 C   0  0  0  0  0  0  0  0  0  0  0  0
    6.8446  -33.5744   26.2173 C   0  0  0  0  0  0  0  0  0  0  0  0
    6.6227  -32.9763   27.2722 O   0  0  0  0  0  0  0  0  0  0  0  0
    8.1419  -33.3911   25.4409 C   0  0  0  0  0  0  0  0  0  0  0  0
   10.2944  -33.1672   23.5100 C   0  0  0  0  0  0  0  0  0  0  0  0
  1  2  1  0
  2  3  1  0
  3  4  1  0
  4  5  1  0
  5  6  1  0
  6  7  2  0
  7  8  1  0
  8  9  2  0
  9 10  1  0
 10 11  1  0
  9 12  1  0
 12 13  1  0
 13 14  1  0
 14 15  1  0
 15 16  1  0
 16 17  1  0
 17 18  2  0
 17 19  1  0
 12 20  2  0
 20  6  1  0
 19 13  1  0
M  END
$$$$
