
     RDKit          3D

 16 17  0  0  0  0  0  0  0  0999 V2000
   11.2644   15.7258    7.1640 N   0  0  0  0  0  0  0  0  0  0  0  0
   11.8260   14.6350    7.9491 C   0  0  0  0  0  0  0  0  0  0  0  0
   10.7296   13.9473    8.7596 C   0  0  0  0  0  0  0  0  0  0  0  0
   11.3121   12.8652    9.6597 C   0  0  0  0  0  0  0  0  0  0  0  0
   10.2446   11.9767   10.2678 C   0  0  0  0  0  0  0  0  0  0  0  0
   10.1959   10.7770    9.9808 O   0  0  0  0  0  0  0  0  0  0  0  0
    9.2689   12.6010   11.2486 C   0  0  0  0  0  0  0  0  0  0  0  0
    7.9631   12.9444   10.6106 C   0  0  0  0  0  0  0  0  0  0  0  0
    7.0962   12.0584    9.9985 C   0  0  0  0  0  0  0  0  0  0  0  0
    6.0113   12.7548    9.5439 N   0  0  0  0  0  0  0  0  0  0  0  0
    6.1388   14.0875    9.8552 C   0  0  0  0  0  0  0  0  0  0  0  0
    5.2766   15.1589    9.5924 C   0  0  0  0  0  0  0  0  0  0  0  0
    5.6645   16.4269   10.0332 C   0  0  0  0  0  0  0  0  0  0  0  0
    6.8662   16.6124   10.7109 C   0  0  0  0  0  0  0  0  0  0  0  0
    7.7159   15.5296   10.9665 C   0  0  0  0  0  0  0  0  0  0  0  0
    7.3513   14.2385   10.5299 C   0  0  0  0  0  0  0  0  0  0  0  0
  1  2  1  0
  2  3  1  0
  3  4  1  0
  4  5  1  0
  5  6  2  0
  5  7  1  0
  7  8  1  0
  8  9  2  0
  9 10  1  0
 10 11  1  0
 11 12  2  0
 12 13  1  0
 13 14  2  0
 14 15  1  0
 15 16  2  0
 16  8  1  0
 16 11  1  0
M  END
$$$$
