
     RDKit          3D

 30 32  0  0  0  0  0  0  0  0999 V2000
  -30.7785   -5.4963    2.4720 N   0  0  0  0  0  0  0  0  0  0  0  0
  -31.5890   -4.9751    3.5701 C   0  0  0  0  0  0  0  0  0  0  0  0
  -30.9303   -3.7957    4.2553 C   0  0  0  0  0  0  0  0  0  0  0  0
  -31.4795   -2.5130    4.0644 C   0  0  0  0  0  0  0  0  0  0  0  0
  -30.9076   -1.3929    4.6649 C   0  0  0  0  0  0  0  0  0  0  0  0
  -29.7820   -1.5522    5.4688 C   0  0  0  0  0  0  0  0  0  0  0  0
  -29.0712   -0.1509    6.2842 S   0  0  0  0  0  0  0  0  0  0  0  0
  -27.6846    0.1501    5.3840 N   0  0  0  0  0  0  0  0  0  0  0  0
  -29.9560    0.9793    6.1228 O   0  0  0  0  0  0  0  0  0  0  0  0
  -28.6086   -0.5818    7.5851 O   0  0  0  0  0  0  0  0  0  0  0  0
  -29.2271   -2.8170    5.6803 C   0  0  0  0  0  0  0  0  0  0  0  0
  -29.7706   -3.9501    5.0542 C   0  0  0  0  0  0  0  0  0  0  0  0
  -29.1863   -5.2239    5.1944 N   0  0  0  0  0  0  0  0  0  0  0  0
  -29.6912   -5.9372    6.3839 C   0  0  0  0  0  0  0  0  0  0  0  0
  -28.6620   -5.9381    7.5096 C   0  0  0  0  0  0  0  0  0  0  0  0
  -27.3526   -6.5961    7.0782 C   0  0  0  0  0  0  0  0  0  0  0  0
  -27.1722   -6.5955    5.5635 C   0  0  0  0  0  0  0  0  0  0  0  0
  -27.7418   -5.3254    4.9175 C   0  0  0  0  0  0  0  0  0  0  0  0
  -27.5227   -5.4840    3.5132 O   0  0  0  0  0  0  0  0  0  0  0  0
  -27.3522   -4.2623    2.8252 C   0  0  0  0  0  0  0  0  0  0  0  0
  -25.9992   -3.8238    3.0182 N   0  0  0  0  0  0  0  0  0  0  0  0
  -25.7114   -2.5558    3.4621 C   0  0  0  0  0  0  0  0  0  0  0  0
  -26.5684   -1.7429    3.7962 O   0  0  0  0  0  0  0  0  0  0  0  0
  -24.2721   -2.1812    3.5218 C   0  0  0  0  0  0  0  0  0  0  0  0
  -23.2632   -3.1321    3.7284 C   0  0  0  0  0  0  0  0  0  0  0  0
  -21.9251   -2.7292    3.7875 C   0  0  0  0  0  0  0  0  0  0  0  0
  -21.5967   -1.3808    3.6484 C   0  0  0  0  0  0  0  0  0  0  0  0
  -19.9498   -0.8918    3.7220 Cl  0  0  0  0  0  0  0  0  0  0  0  0
  -22.5948   -0.4274    3.4569 C   0  0  0  0  0  0  0  0  0  0  0  0
  -23.9329   -0.8263    3.3982 C   0  0  0  0  0  0  0  0  0  0  0  0
  1  2  1  0
  2  3  1  0
  3  4  2  0
  4  5  1  0
  5  6  2  0
  6  7  1  0
  7  8  1  0
  7  9  2  0
  7 10  2  0
  6 11  1  0
 11 12  2  0
 12 13  1  0
 13 14  1  0
 14 15  1  0
 15 16  1  0
 16 17  1  0
 17 18  1  0
 18 19  1  0
 19 20  1  0
 20 21  1  0
 21 22  1  0
 22 23  2  0
 22 24  1  0
 24 25  2  0
 25 26  1  0
 26 27  2  0
 27 28  1  0
 27 29  1  0
 29 30  2  0
 12  3  1  0
 18 13  1  0
 30 24  1  0
M  END
$$$$
