
     RDKit          3D

 28 30  0  0  0  0  0  0  0  0999 V2000
    9.0020   -7.0082    3.1183 N   0  0  0  0  0  0  0  0  0  0  0  0
    9.9478   -6.1318    3.5611 C   0  0  0  0  0  0  0  0  0  0  0  0
   11.1263   -6.4690    3.6022 O   0  0  0  0  0  0  0  0  0  0  0  0
    9.5117   -4.7598    3.9760 C   0  0  0  0  0  0  0  0  0  0  0  0
   10.5422   -3.8198    4.1658 C   0  0  0  0  0  0  0  0  0  0  0  0
   10.2552   -2.5073    4.5411 C   0  0  0  0  0  0  0  0  0  0  0  0
    8.9330   -2.1264    4.7309 C   0  0  0  0  0  0  0  0  0  0  0  0
    8.5698   -0.5056    5.1829 Cl  0  0  0  0  0  0  0  0  0  0  0  0
    7.8940   -3.0450    4.5588 C   0  0  0  0  0  0  0  0  0  0  0  0
    8.1703   -4.3712    4.1884 C   0  0  0  0  0  0  0  0  0  0  0  0
    7.1963   -5.3224    4.0121 O   0  0  0  0  0  0  0  0  0  0  0  0
    5.8745   -5.0171    4.4459 C   0  0  0  0  0  0  0  0  0  0  0  0
    5.1265   -6.2531    4.2879 N   0  0  0  0  0  0  0  0  0  0  0  0
    3.4514   -6.1205    4.4557 S   0  0  0  0  0  0  0  0  0  0  0  0
    3.0199   -7.4475    4.8374 O   0  0  0  0  0  0  0  0  0  0  0  0
    3.2346   -4.9539    5.2835 O   0  0  0  0  0  0  0  0  0  0  0  0
    2.8740   -5.8192    2.8089 C   0  0  0  0  0  0  0  0  0  0  0  0
    3.7359   -6.0417    1.7279 C   0  0  0  0  0  0  0  0  0  0  0  0
    3.2797   -5.7478    0.4581 C   0  0  0  0  0  0  0  0  0  0  0  0
    2.0524   -5.2586    0.2057 N   0  0  0  0  0  0  0  0  0  0  0  0
    1.2389   -5.0728    1.2735 C   0  0  0  0  0  0  0  0  0  0  0  0
    1.5760   -5.3334    2.6052 C   0  0  0  0  0  0  0  0  0  0  0  0
    0.6626   -5.1715    3.6524 N   0  0  0  0  0  0  0  0  0  0  0  0
    0.0559   -3.8349    3.7958 C   0  0  0  0  0  0  0  0  0  0  0  0
   -1.4562   -3.8785    3.5964 C   0  0  0  0  0  0  0  0  0  0  0  0
   -2.1297   -4.8467    4.5707 C   0  0  0  0  0  0  0  0  0  0  0  0
   -1.2459   -6.0448    4.9221 C   0  0  0  0  0  0  0  0  0  0  0  0
   -0.2313   -6.3324    3.8205 C   0  0  0  0  0  0  0  0  0  0  0  0
  1  2  1  0
  2  3  2  0
  2  4  1  0
  4  5  2  0
  5  6  1  0
  6  7  2  0
  7  8  1  0
  7  9  1  0
  9 10  2  0
 10 11  1  0
 11 12  1  0
 12 13  1  0
 13 14  1  0
 14 15  2  0
 14 16  2  0
 14 17  1  0
 17 18  2  0
 18 19  1  0
 19 20  2  0
 20 21  1  0
 21 22  2  0
 22 23  1  0
 23 24  1  0
 24 25  1  0
 25 26  1  0
 26 27  1  0
 27 28  1  0
 10  4  1  0
 22 17  1  0
 28 23  1  0
M  END
$$$$
