
     RDKit          3D

 22 24  0  0  0  0  0  0  0  0999 V2000
   -7.4617   -8.5821   -1.3798 N   0  0  0  0  0  0  0  0  0  0  0  0
   -6.6015   -7.5545   -1.6458 C   0  0  0  0  0  0  0  0  0  0  0  0
   -6.1854   -7.3597   -2.7803 O   0  0  0  0  0  0  0  0  0  0  0  0
   -6.3069   -6.6162   -0.5302 C   0  0  0  0  0  0  0  0  0  0  0  0
   -6.3572   -5.2514   -0.8680 C   0  0  0  0  0  0  0  0  0  0  0  0
   -6.1199   -4.2680    0.0920 C   0  0  0  0  0  0  0  0  0  0  0  0
   -5.8279   -4.6444    1.3968 C   0  0  0  0  0  0  0  0  0  0  0  0
   -5.5202   -3.4402    2.5859 Cl  0  0  0  0  0  0  0  0  0  0  0  0
   -5.7637   -5.9944    1.7449 C   0  0  0  0  0  0  0  0  0  0  0  0
   -5.9847   -7.0078    0.7875 C   0  0  0  0  0  0  0  0  0  0  0  0
   -5.7713   -8.4435    1.2260 C   0  0  0  0  0  0  0  0  0  0  0  0
   -4.4708   -9.0982    0.7259 C   0  0  0  0  0  0  0  0  0  0  0  0
   -3.2874   -8.6297    1.4470 N   0  0  0  0  0  0  0  0  0  0  0  0
   -2.7418   -7.3994    1.0808 C   0  0  0  0  0  0  0  0  0  0  0  0
   -2.3183   -6.6127    2.1062 N   0  0  0  0  0  0  0  0  0  0  0  0
   -1.8134   -5.3904    1.8238 C   0  0  0  0  0  0  0  0  0  0  0  0
   -1.6627   -4.8039    0.6204 N   0  0  0  0  0  0  0  0  0  0  0  0
   -2.0811   -5.6220   -0.3548 C   0  0  0  0  0  0  0  0  0  0  0  0
   -2.0879   -5.3593   -1.6938 N   0  0  0  0  0  0  0  0  0  0  0  0
   -2.6037   -6.4551   -2.3270 C   0  0  0  0  0  0  0  0  0  0  0  0
   -2.9125   -7.4087   -1.4756 N   0  0  0  0  0  0  0  0  0  0  0  0
   -2.6063   -6.8973   -0.2298 C   0  0  0  0  0  0  0  0  0  0  0  0
  1  2  1  0
  2  3  2  0
  2  4  1  0
  4  5  2  0
  5  6  1  0
  6  7  2  0
  7  8  1  0
  7  9  1  0
  9 10  2  0
 10 11  1  0
 11 12  1  0
 12 13  1  0
 13 14  1  0
 14 15  2  0
 15 16  1  0
 16 17  2  0
 17 18  1  0
 18 19  1  0
 19 20  1  0
 20 21  2  0
 21 22  1  0
 10  4  1  0
 22 14  1  0
 22 18  2  0
M  END
$$$$
