
     RDKit          3D

 19 20  0  0  0  0  0  0  0  0999 V2000
   21.8093   19.4936  -17.1745 N   0  0  0  0  0  0  0  0  0  0  0  0
   22.3163   18.9760  -18.4400 C   0  0  0  0  0  0  0  0  0  0  0  0
   22.3463   20.0549  -19.5122 C   0  0  0  0  0  0  0  0  0  0  0  0
   20.9543   20.4353  -19.9724 C   0  0  0  0  0  0  0  0  0  0  0  0
   20.1975   19.6151  -20.4961 O   0  0  0  0  0  0  0  0  0  0  0  0
   20.5256   21.8624  -19.7826 C   0  0  0  0  0  0  0  0  0  0  0  0
   20.0899   22.1694  -18.3768 C   0  0  0  0  0  0  0  0  0  0  0  0
   20.8834   22.6455  -17.5618 O   0  0  0  0  0  0  0  0  0  0  0  0
   18.6597   21.8535  -18.0001 C   0  0  0  0  0  0  0  0  0  0  0  0
   18.5677   20.5477  -17.2250 C   0  0  0  0  0  0  0  0  0  0  0  0
   17.1474   20.1612  -16.9603 C   0  0  0  0  0  0  0  0  0  0  0  0
   16.4007   20.4812  -15.8436 C   0  0  0  0  0  0  0  0  0  0  0  0
   15.1505   19.9449  -15.9952 N   0  0  0  0  0  0  0  0  0  0  0  0
   15.0587   19.2798  -17.1955 C   0  0  0  0  0  0  0  0  0  0  0  0
   13.9818   18.5909  -17.7663 C   0  0  0  0  0  0  0  0  0  0  0  0
   14.1810   18.0006  -19.0180 C   0  0  0  0  0  0  0  0  0  0  0  0
   15.4082   18.0966  -19.6696 C   0  0  0  0  0  0  0  0  0  0  0  0
   16.4744   18.7894  -19.0846 C   0  0  0  0  0  0  0  0  0  0  0  0
   16.2993   19.3944  -17.8228 C   0  0  0  0  0  0  0  0  0  0  0  0
  1  2  1  0
  2  3  1  0
  3  4  1  0
  4  5  2  0
  4  6  1  0
  6  7  1  0
  7  8  2  0
  7  9  1  0
  9 10  1  0
 10 11  1  0
 11 12  2  0
 12 13  1  0
 13 14  1  0
 14 15  2  0
 15 16  1  0
 16 17  2  0
 17 18  1  0
 18 19  2  0
 19 11  1  0
 19 14  1  0
M  END
$$$$
