
     RDKit          3D

 18 19  0  0  0  0  0  0  0  0999 V2000
   57.7144   13.8751    2.3830 N   0  0  0  0  0  0  0  0  0  0  0  0
   57.1998   15.2340    2.5366 C   0  0  0  0  0  0  0  0  0  0  0  0
   55.9661   15.4997    1.6841 C   0  0  0  0  0  0  0  0  0  0  0  0
   54.7462   14.8035    2.2465 C   0  0  0  0  0  0  0  0  0  0  0  0
   54.3396   13.7447    1.7636 O   0  0  0  0  0  0  0  0  0  0  0  0
   54.0903   15.4129    3.4716 C   0  0  0  0  0  0  0  0  0  0  0  0
   52.5691   15.3495    3.3691 C   0  0  0  0  0  0  0  0  0  0  0  0
   52.0342   16.3109    2.3228 C   0  0  0  0  0  0  0  0  0  0  0  0
   52.8092   17.0541    1.7144 O   0  0  0  0  0  0  0  0  0  0  0  0
   50.5915   16.3600    2.0572 C   0  0  0  0  0  0  0  0  0  0  0  0
   50.0455   17.1944    1.0942 C   0  0  0  0  0  0  0  0  0  0  0  0
   48.6927   17.0233    1.0744 N   0  0  0  0  0  0  0  0  0  0  0  0
   48.3214   16.0921    2.0133 C   0  0  0  0  0  0  0  0  0  0  0  0
   47.0432   15.6168    2.3346 C   0  0  0  0  0  0  0  0  0  0  0  0
   46.9380   14.6563    3.3409 C   0  0  0  0  0  0  0  0  0  0  0  0
   48.0701   14.1911    3.9988 C   0  0  0  0  0  0  0  0  0  0  0  0
   49.3414   14.6772    3.6655 C   0  0  0  0  0  0  0  0  0  0  0  0
   49.4871   15.6508    2.6503 C   0  0  0  0  0  0  0  0  0  0  0  0
  1  2  1  0
  2  3  1  0
  3  4  1  0
  4  5  2  0
  4  6  1  0
  6  7  1  0
  7  8  1  0
  8  9  2  0
  8 10  1  0
 10 11  2  0
 11 12  1  0
 12 13  1  0
 13 14  2  0
 14 15  1  0
 15 16  2  0
 16 17  1  0
 17 18  2  0
 18 10  1  0
 18 13  1  0
M  END
$$$$
