
     RDKit          3D

 19 20  0  0  0  0  0  0  0  0999 V2000
   12.4076   -8.0105   -7.5231 N   0  0  0  0  0  0  0  0  0  0  0  0
   12.9147   -8.5282   -8.7885 C   0  0  0  0  0  0  0  0  0  0  0  0
   12.9447   -7.4493   -9.8607 C   0  0  0  0  0  0  0  0  0  0  0  0
   11.5526   -7.0688  -10.3209 C   0  0  0  0  0  0  0  0  0  0  0  0
   10.7959   -7.8890  -10.8446 O   0  0  0  0  0  0  0  0  0  0  0  0
   11.1240   -5.6418  -10.1311 C   0  0  0  0  0  0  0  0  0  0  0  0
   10.6883   -5.3347   -8.7254 C   0  0  0  0  0  0  0  0  0  0  0  0
   11.4817   -4.8586   -7.9104 O   0  0  0  0  0  0  0  0  0  0  0  0
    9.2580   -5.6506   -8.3487 C   0  0  0  0  0  0  0  0  0  0  0  0
    9.1660   -6.9564   -7.5736 C   0  0  0  0  0  0  0  0  0  0  0  0
    7.7457   -7.3429   -7.3089 C   0  0  0  0  0  0  0  0  0  0  0  0
    6.9991   -7.0230   -6.1921 C   0  0  0  0  0  0  0  0  0  0  0  0
    5.7488   -7.5593   -6.3438 N   0  0  0  0  0  0  0  0  0  0  0  0
    5.6571   -8.2243   -7.5440 C   0  0  0  0  0  0  0  0  0  0  0  0
    4.5802   -8.9133   -8.1149 C   0  0  0  0  0  0  0  0  0  0  0  0
    4.7793   -9.5036   -9.3665 C   0  0  0  0  0  0  0  0  0  0  0  0
    6.0065   -9.4075  -10.0181 C   0  0  0  0  0  0  0  0  0  0  0  0
    7.0727   -8.7147   -9.4332 C   0  0  0  0  0  0  0  0  0  0  0  0
    6.8976   -8.1097   -8.1714 C   0  0  0  0  0  0  0  0  0  0  0  0
  1  2  1  0
  2  3  1  0
  3  4  1  0
  4  5  2  0
  4  6  1  0
  6  7  1  0
  7  8  2  0
  7  9  1  0
  9 10  1  0
 10 11  1  0
 11 12  2  0
 12 13  1  0
 13 14  1  0
 14 15  2  0
 15 16  1  0
 16 17  2  0
 17 18  1  0
 18 19  2  0
 19 11  1  0
 19 14  1  0
M  END
$$$$
