
     RDKit          3D

 28 30  0  0  0  0  0  0  0  0999 V2000
  -41.9155    3.9223   10.4707 N   0  0  0  0  0  0  0  0  0  0  0  0
  -42.0031    2.9771   11.4599 C   0  0  0  0  0  0  0  0  0  0  0  0
  -41.1491    2.1096   11.5827 O   0  0  0  0  0  0  0  0  0  0  0  0
  -43.1923    3.0849   12.3494 C   0  0  0  0  0  0  0  0  0  0  0  0
  -44.4470    3.3595   11.7787 C   0  0  0  0  0  0  0  0  0  0  0  0
  -45.5792    3.4677   12.5897 C   0  0  0  0  0  0  0  0  0  0  0  0
  -45.4583    3.3090   13.9693 C   0  0  0  0  0  0  0  0  0  0  0  0
  -46.8485    3.4748   14.9688 Cl  0  0  0  0  0  0  0  0  0  0  0  0
  -44.2193    3.0270   14.5467 C   0  0  0  0  0  0  0  0  0  0  0  0
  -43.0852    2.8929   13.7353 C   0  0  0  0  0  0  0  0  0  0  0  0
  -41.8486    2.6726   14.2810 O   0  0  0  0  0  0  0  0  0  0  0  0
  -41.8163    1.5552   15.1639 C   0  0  0  0  0  0  0  0  0  0  0  0
  -40.4723    1.0709   15.1542 N   0  0  0  0  0  0  0  0  0  0  0  0
  -40.0123    0.1876   16.0950 C   0  0  0  0  0  0  0  0  0  0  0  0
  -40.6646   -0.1053   17.0966 O   0  0  0  0  0  0  0  0  0  0  0  0
  -38.6717   -0.4413   15.8482 C   0  0  0  0  0  0  0  0  0  0  0  0
  -38.2493   -1.3712   16.8113 C   0  0  0  0  0  0  0  0  0  0  0  0
  -37.0372   -2.0112   16.6398 C   0  0  0  0  0  0  0  0  0  0  0  0
  -36.2255   -1.7949   15.5887 N   0  0  0  0  0  0  0  0  0  0  0  0
  -36.6501   -0.8963   14.6692 C   0  0  0  0  0  0  0  0  0  0  0  0
  -37.8548   -0.1795   14.7270 C   0  0  0  0  0  0  0  0  0  0  0  0
  -38.1991    0.7782   13.7430 N   0  0  0  0  0  0  0  0  0  0  0  0
  -37.5603    2.0846   14.0225 C   0  0  0  0  0  0  0  0  0  0  0  0
  -37.7694    3.0219   12.8351 C   0  0  0  0  0  0  0  0  0  0  0  0
  -37.0202    2.5090   11.6115 C   0  0  0  0  0  0  0  0  0  0  0  0
  -37.0806    0.9980   11.5160 C   0  0  0  0  0  0  0  0  0  0  0  0
  -36.3251    0.3819   10.7605 O   0  0  0  0  0  0  0  0  0  0  0  0
  -38.1457    0.2918   12.3383 C   0  0  0  0  0  0  0  0  0  0  0  0
  1  2  1  0
  2  3  2  0
  2  4  1  0
  4  5  2  0
  5  6  1  0
  6  7  2  0
  7  8  1  0
  7  9  1  0
  9 10  2  0
 10 11  1  0
 11 12  1  0
 12 13  1  0
 13 14  1  0
 14 15  2  0
 14 16  1  0
 16 17  2  0
 17 18  1  0
 18 19  2  0
 19 20  1  0
 20 21  2  0
 21 22  1  0
 22 23  1  0
 23 24  1  0
 24 25  1  0
 25 26  1  0
 26 27  2  0
 26 28  1  0
 10  4  1  0
 21 16  1  0
 28 22  1  0
M  END
$$$$
