
     RDKit          3D

 29 32  0  0  0  0  0  0  0  0999 V2000
  -28.4681    2.7684   -2.4676 N   0  0  0  0  0  0  0  0  0  0  0  0
  -29.1941    3.4917   -3.3786 C   0  0  0  0  0  0  0  0  0  0  0  0
  -29.6177    2.9907   -4.4136 O   0  0  0  0  0  0  0  0  0  0  0  0
  -29.4426    4.9067   -3.0232 C   0  0  0  0  0  0  0  0  0  0  0  0
  -30.1163    5.1230   -1.8108 C   0  0  0  0  0  0  0  0  0  0  0  0
  -30.4731    6.4135   -1.4735 C   0  0  0  0  0  0  0  0  0  0  0  0
  -30.2115    7.4768   -2.2488 N   0  0  0  0  0  0  0  0  0  0  0  0
  -29.5475    7.2295   -3.4077 C   0  0  0  0  0  0  0  0  0  0  0  0
  -29.1204    5.9761   -3.8695 C   0  0  0  0  0  0  0  0  0  0  0  0
  -28.4224    5.9305   -5.0825 N   0  0  0  0  0  0  0  0  0  0  0  0
  -29.2976    5.9078   -6.2567 C   0  0  0  0  0  0  0  0  0  0  0  0
  -28.5930    6.6603   -7.3907 C   0  0  0  0  0  0  0  0  0  0  0  0
  -27.0636    6.5846   -7.2923 C   0  0  0  0  0  0  0  0  0  0  0  0
  -26.6142    5.2838   -6.6246 C   0  0  0  0  0  0  0  0  0  0  0  0
  -27.2129    5.0915   -5.1909 C   0  0  0  0  0  0  0  0  0  0  0  0
  -26.2066    5.3100   -4.1526 N   0  0  0  0  0  0  0  0  0  0  0  0
  -25.1890    4.2934   -4.0928 C   0  0  0  0  0  0  0  0  0  0  0  0
  -24.3970    4.5225   -2.8989 N   0  0  0  0  0  0  0  0  0  0  0  0
  -23.4534    5.6420   -3.0366 C   0  0  0  0  0  0  0  0  0  0  0  0
  -22.4863    5.7238   -1.8427 C   0  0  0  0  0  0  0  0  0  0  0  0
  -21.4711    4.6186   -1.8193 C   0  0  0  0  0  0  0  0  0  0  0  0
  -21.5092    3.4851   -1.0263 C   0  0  0  0  0  0  0  0  0  0  0  0
  -20.3983    2.7310   -1.2981 N   0  0  0  0  0  0  0  0  0  0  0  0
  -19.6268    3.3471   -2.2583 C   0  0  0  0  0  0  0  0  0  0  0  0
  -18.4147    2.9461   -2.8374 C   0  0  0  0  0  0  0  0  0  0  0  0
  -17.8421    3.7897   -3.7973 C   0  0  0  0  0  0  0  0  0  0  0  0
  -18.4593    4.9854   -4.1616 C   0  0  0  0  0  0  0  0  0  0  0  0
  -19.6718    5.3704   -3.5736 C   0  0  0  0  0  0  0  0  0  0  0  0
  -20.2715    4.5370   -2.6024 C   0  0  0  0  0  0  0  0  0  0  0  0
  1  2  1  0
  2  3  2  0
  2  4  1  0
  4  5  2  0
  5  6  1  0
  6  7  2  0
  7  8  1  0
  8  9  2  0
  9 10  1  0
 10 11  1  0
 11 12  1  0
 12 13  1  0
 13 14  1  0
 14 15  1  0
 15 16  1  0
 16 17  1  0
 17 18  1  0
 18 19  1  0
 19 20  1  0
 20 21  1  0
 21 22  2  0
 22 23  1  0
 23 24  1  0
 24 25  2  0
 25 26  1  0
 26 27  2  0
 27 28  1  0
 28 29  2  0
  9  4  1  0
 15 10  1  0
 29 21  1  0
 29 24  1  0
M  END
$$$$
