
     RDKit          3D

 26 28  0  0  0  0  0  0  0  0999 V2000
  -10.4694   12.9572   52.6579 C   0  0  0  0  0  0  0  0  0  0  0  0
   -9.9223   13.9614   51.7831 N   0  0  0  0  0  0  0  0  0  0  0  0
   -8.9517   14.8339   52.2202 C   0  0  0  0  0  0  0  0  0  0  0  0
   -8.4321   14.7686   53.3239 O   0  0  0  0  0  0  0  0  0  0  0  0
   -8.5543   15.8623   51.1824 C   0  0  0  0  0  0  0  0  0  0  0  0
   -9.2536   17.1891   51.3691 C   0  0  0  0  0  0  0  0  0  0  0  0
   -8.6462   18.1305   52.2184 C   0  0  0  0  0  0  0  0  0  0  0  0
   -9.2283   19.3767   52.4506 C   0  0  0  0  0  0  0  0  0  0  0  0
  -10.4291   19.7035   51.8337 C   0  0  0  0  0  0  0  0  0  0  0  0
  -11.1013   20.8877   51.9602 O   0  0  0  0  0  0  0  0  0  0  0  0
  -10.4836   21.8903   52.7575 C   0  0  0  0  0  0  0  0  0  0  0  0
  -11.0483   18.7668   51.0005 C   0  0  0  0  0  0  0  0  0  0  0  0
  -10.4938   17.4951   50.7639 C   0  0  0  0  0  0  0  0  0  0  0  0
  -11.1131   16.5492   49.8977 N   0  0  0  0  0  0  0  0  0  0  0  0
  -10.6289   16.8140   48.5152 C   0  0  0  0  0  0  0  0  0  0  0  0
  -11.1447   15.7842   47.5169 C   0  0  0  0  0  0  0  0  0  0  0  0
  -10.5914   15.6292   46.4121 O   0  0  0  0  0  0  0  0  0  0  0  0
  -12.4720   15.1025   47.7937 C   0  0  0  0  0  0  0  0  0  0  0  0
  -12.9418   15.1391   49.2462 C   0  0  0  0  0  0  0  0  0  0  0  0
  -12.6019   16.4817   49.9371 C   0  0  0  0  0  0  0  0  0  0  0  0
  -13.3469   16.6525   51.1851 N   0  0  0  0  0  0  0  0  0  0  0  0
  -14.7447   17.0291   51.0374 C   0  0  0  0  0  0  0  0  0  0  0  0
  -15.2819   17.5342   52.3753 C   0  0  0  0  0  0  0  0  0  0  0  0
  -15.1115   16.5179   53.5047 C   0  0  0  0  0  0  0  0  0  0  0  0
  -14.2761   15.3144   53.0847 C   0  0  0  0  0  0  0  0  0  0  0  0
  -13.0479   15.7181   52.2658 C   0  0  0  0  0  0  0  0  0  0  0  0
  1  2  1  0
  2  3  1  0
  3  4  2  0
  3  5  1  0
  5  6  1  0
  6  7  2  0
  7  8  1  0
  8  9  2  0
  9 10  1  0
 10 11  1  0
  9 12  1  0
 12 13  2  0
 13 14  1  0
 14 15  1  0
 15 16  1  0
 16 17  2  0
 16 18  1  0
 18 19  1  0
 19 20  1  0
 20 21  1  0
 21 22  1  0
 22 23  1  0
 23 24  1  0
 24 25  1  0
 25 26  1  0
 13  6  1  0
 20 14  1  0
 26 21  1  0
M  END
$$$$
