
     RDKit          3D

 31 33  0  0  0  0  0  0  0  0999 V2000
   14.9536    6.6014  -13.8722 C   0  0  0  0  0  0  0  0  0  0  0  0
   14.3994    5.5006  -13.0936 N   0  0  0  0  0  0  0  0  0  0  0  0
   13.1478    5.8987  -12.4411 C   0  0  0  0  0  0  0  0  0  0  0  0
   12.5826    4.7411  -11.6070 C   0  0  0  0  0  0  0  0  0  0  0  0
   11.3018    5.1313  -10.9089 C   0  0  0  0  0  0  0  0  0  0  0  0
   11.3354    5.7717   -9.6662 C   0  0  0  0  0  0  0  0  0  0  0  0
   10.1510    6.1525   -9.0334 C   0  0  0  0  0  0  0  0  0  0  0  0
    8.9183    5.8926   -9.6350 C   0  0  0  0  0  0  0  0  0  0  0  0
    7.7304    6.2802   -9.0664 O   0  0  0  0  0  0  0  0  0  0  0  0
    7.6274    5.9380   -7.6843 C   0  0  0  0  0  0  0  0  0  0  0  0
    8.8634    5.2767  -10.8946 C   0  0  0  0  0  0  0  0  0  0  0  0
    7.5491    5.0209  -11.5895 C   0  0  0  0  0  0  0  0  0  0  0  0
    6.6992    3.9712  -10.9030 C   0  0  0  0  0  0  0  0  0  0  0  0
    6.8710    2.7709  -11.0759 O   0  0  0  0  0  0  0  0  0  0  0  0
    5.6914    4.4854  -10.0788 N   0  0  0  0  0  0  0  0  0  0  0  0
    4.5636    3.5931   -9.2649 S   0  0  0  0  0  0  0  0  0  0  0  0
    5.2703    2.6810   -8.3887 O   0  0  0  0  0  0  0  0  0  0  0  0
    3.6192    4.5347   -8.6974 O   0  0  0  0  0  0  0  0  0  0  0  0
    3.7248    2.6605  -10.5131 C   0  0  0  0  0  0  0  0  0  0  0  0
    3.6426    1.2736  -10.3308 C   0  0  0  0  0  0  0  0  0  0  0  0
    3.0098    0.5224  -11.2999 C   0  0  0  0  0  0  0  0  0  0  0  0
    2.4592    1.0551  -12.4051 N   0  0  0  0  0  0  0  0  0  0  0  0
    2.5640    2.4001  -12.5516 C   0  0  0  0  0  0  0  0  0  0  0  0
    3.1921    3.2737  -11.6558 C   0  0  0  0  0  0  0  0  0  0  0  0
    3.2686    4.6654  -11.8738 N   0  0  0  0  0  0  0  0  0  0  0  0
    2.0175    5.3391  -11.4596 C   0  0  0  0  0  0  0  0  0  0  0  0
    2.2580    6.8490  -11.4358 C   0  0  0  0  0  0  0  0  0  0  0  0
    2.7770    7.3543  -12.7826 C   0  0  0  0  0  0  0  0  0  0  0  0
    3.9939    6.5512  -13.2394 C   0  0  0  0  0  0  0  0  0  0  0  0
    3.6974    5.0516  -13.2314 C   0  0  0  0  0  0  0  0  0  0  0  0
   10.0626    4.8924  -11.5170 C   0  0  0  0  0  0  0  0  0  0  0  0
  1  2  1  0
  2  3  1  0
  3  4  1  0
  4  5  1  0
  5  6  2  0
  6  7  1  0
  7  8  2  0
  8  9  1  0
  9 10  1  0
  8 11  1  0
 11 12  1  0
 12 13  1  0
 13 14  2  0
 13 15  1  0
 15 16  1  0
 16 17  2  0
 16 18  2  0
 16 19  1  0
 19 20  2  0
 20 21  1  0
 21 22  2  0
 22 23  1  0
 23 24  2  0
 24 25  1  0
 25 26  1  0
 26 27  1  0
 27 28  1  0
 28 29  1  0
 29 30  1  0
 11 31  2  0
 31  5  1  0
 24 19  1  0
 30 25  1  0
M  END
$$$$
