
     RDKit          3D

 15 16  0  0  0  0  0  0  0  0999 V2000
  -29.6509   -7.6638    2.4028 N   0  0  0  0  0  0  0  0  0  0  0  0
  -30.7857   -8.0214    1.5601 C   0  0  0  0  0  0  0  0  0  0  0  0
  -30.7140   -9.4888    1.1375 C   0  0  0  0  0  0  0  0  0  0  0  0
  -31.8515   -9.8823    0.1972 C   0  0  0  0  0  0  0  0  0  0  0  0
  -33.1854   -9.9465    0.9226 C   0  0  0  0  0  0  0  0  0  0  0  0
  -33.3841  -10.8659    1.7195 O   0  0  0  0  0  0  0  0  0  0  0  0
  -34.1986   -8.9122    0.6828 C   0  0  0  0  0  0  0  0  0  0  0  0
  -34.0702   -7.7941   -0.1249 C   0  0  0  0  0  0  0  0  0  0  0  0
  -35.2370   -7.0777   -0.0707 N   0  0  0  0  0  0  0  0  0  0  0  0
  -36.1391   -7.6994    0.7568 C   0  0  0  0  0  0  0  0  0  0  0  0
  -37.4439   -7.3285    1.1048 C   0  0  0  0  0  0  0  0  0  0  0  0
  -38.1429   -8.1602    1.9835 C   0  0  0  0  0  0  0  0  0  0  0  0
  -37.5578   -9.3157    2.4925 C   0  0  0  0  0  0  0  0  0  0  0  0
  -36.2523   -9.6704    2.1334 C   0  0  0  0  0  0  0  0  0  0  0  0
  -35.5203   -8.8506    1.2469 C   0  0  0  0  0  0  0  0  0  0  0  0
  1  2  1  0
  2  3  1  0
  3  4  1  0
  4  5  1  0
  5  6  2  0
  5  7  1  0
  7  8  2  0
  8  9  1  0
  9 10  1  0
 10 11  2  0
 11 12  1  0
 12 13  2  0
 13 14  1  0
 14 15  2  0
 15  7  1  0
 15 10  1  0
M  END
$$$$
