
     RDKit          3D

 28 31  0  0  0  0  0  0  0  0999 V2000
    1.9219  -10.6392   -6.2990 N   0  0  0  0  0  0  0  0  0  0  0  0
    2.8580   -9.7245   -7.0084 C   0  0  0  0  0  0  0  0  0  0  0  0
    2.3182   -9.0728   -8.6094 S   0  0  0  0  0  0  0  0  0  0  0  0
    1.0448   -8.4082   -8.3661 O   0  0  0  0  0  0  0  0  0  0  0  0
    2.3856  -10.1210   -9.6120 O   0  0  0  0  0  0  0  0  0  0  0  0
    3.4971   -7.8101   -9.0272 C   0  0  0  0  0  0  0  0  0  0  0  0
    3.0019   -6.5056   -9.1764 C   0  0  0  0  0  0  0  0  0  0  0  0
    3.8698   -5.5172   -9.5891 C   0  0  0  0  0  0  0  0  0  0  0  0
    5.1612   -5.7501   -9.8772 N   0  0  0  0  0  0  0  0  0  0  0  0
    5.6017   -7.0234   -9.7298 C   0  0  0  0  0  0  0  0  0  0  0  0
    4.8468   -8.1073   -9.2680 C   0  0  0  0  0  0  0  0  0  0  0  0
    5.3702   -9.3987   -9.1463 N   0  0  0  0  0  0  0  0  0  0  0  0
    5.6050  -10.0417  -10.4555 C   0  0  0  0  0  0  0  0  0  0  0  0
    5.7044  -11.5549  -10.2786 C   0  0  0  0  0  0  0  0  0  0  0  0
    6.7508  -11.9340   -9.2353 C   0  0  0  0  0  0  0  0  0  0  0  0
    6.4841  -11.2069   -7.9183 C   0  0  0  0  0  0  0  0  0  0  0  0
    6.4034   -9.6705   -8.0975 C   0  0  0  0  0  0  0  0  0  0  0  0
    7.8081   -9.0571   -8.3647 C   0  0  0  0  0  0  0  0  0  0  0  0
    8.7560   -9.3975   -7.2962 N   0  0  0  0  0  0  0  0  0  0  0  0
   10.0554   -9.0701   -7.4695 C   0  0  0  0  0  0  0  0  0  0  0  0
   10.7897   -8.3496   -6.6610 N   0  0  0  0  0  0  0  0  0  0  0  0
   12.0366   -8.3113   -7.2390 C   0  0  0  0  0  0  0  0  0  0  0  0
   13.2059   -7.6669   -6.8103 C   0  0  0  0  0  0  0  0  0  0  0  0
   14.3636   -7.7868   -7.5904 C   0  0  0  0  0  0  0  0  0  0  0  0
   14.3576   -8.5354   -8.7704 C   0  0  0  0  0  0  0  0  0  0  0  0
   13.2017   -9.1908   -9.2124 C   0  0  0  0  0  0  0  0  0  0  0  0
   12.0620   -9.0488   -8.4182 C   0  0  0  0  0  0  0  0  0  0  0  0
   10.7860   -9.5374   -8.5294 N   0  0  0  0  0  0  0  0  0  0  0  0
  1  2  1  0
  2  3  1  0
  3  4  2  0
  3  5  2  0
  3  6  1  0
  6  7  2  0
  7  8  1  0
  8  9  2  0
  9 10  1  0
 10 11  2  0
 11 12  1  0
 12 13  1  0
 13 14  1  0
 14 15  1  0
 15 16  1  0
 16 17  1  0
 17 18  1  0
 18 19  1  0
 19 20  1  0
 20 21  2  0
 21 22  1  0
 22 23  2  0
 23 24  1  0
 24 25  2  0
 25 26  1  0
 26 27  2  0
 27 28  1  0
 11  6  1  0
 17 12  1  0
 28 20  1  0
 27 22  1  0
M  END
$$$$
