
     RDKit          3D

 29 32  0  0  0  0  0  0  0  0999 V2000
   13.7610    0.6611   -2.7949 C   0  0  0  0  0  0  0  0  0  0  0  0
   12.8614   -0.4394   -2.8289 O   0  0  0  0  0  0  0  0  0  0  0  0
   13.0484   -1.4188   -1.8925 C   0  0  0  0  0  0  0  0  0  0  0  0
   14.0243   -1.4319   -0.9046 C   0  0  0  0  0  0  0  0  0  0  0  0
   14.0951   -2.5053   -0.0131 C   0  0  0  0  0  0  0  0  0  0  0  0
   13.1894   -3.5844   -0.0832 C   0  0  0  0  0  0  0  0  0  0  0  0
   13.3518   -4.6977    0.9231 C   0  0  0  0  0  0  0  0  0  0  0  0
   14.2364   -5.7446    0.4324 N   0  0  0  0  0  0  0  0  0  0  0  0
   12.2017   -3.5815   -1.0890 C   0  0  0  0  0  0  0  0  0  0  0  0
   11.2727   -4.6057   -1.2780 N   0  0  0  0  0  0  0  0  0  0  0  0
   11.7831   -5.8506   -1.8712 C   0  0  0  0  0  0  0  0  0  0  0  0
   11.4525   -7.0955   -1.0648 C   0  0  0  0  0  0  0  0  0  0  0  0
   12.0648   -8.1557   -1.2151 O   0  0  0  0  0  0  0  0  0  0  0  0
   10.2958   -7.0187   -0.1001 C   0  0  0  0  0  0  0  0  0  0  0  0
    9.3309   -5.9236   -0.5259 C   0  0  0  0  0  0  0  0  0  0  0  0
   10.0327   -4.5496   -0.5067 C   0  0  0  0  0  0  0  0  0  0  0  0
    9.0698   -3.4807   -0.7705 N   0  0  0  0  0  0  0  0  0  0  0  0
    8.5584   -3.4680   -2.1267 C   0  0  0  0  0  0  0  0  0  0  0  0
    7.2307   -3.9810   -2.3684 N   0  0  0  0  0  0  0  0  0  0  0  0
    6.1290   -3.4742   -1.7823 C   0  0  0  0  0  0  0  0  0  0  0  0
    5.0252   -4.1302   -1.5213 N   0  0  0  0  0  0  0  0  0  0  0  0
    4.1882   -3.2195   -0.9229 C   0  0  0  0  0  0  0  0  0  0  0  0
    2.8831   -3.3825   -0.4370 C   0  0  0  0  0  0  0  0  0  0  0  0
    2.2391   -2.2806    0.1407 C   0  0  0  0  0  0  0  0  0  0  0  0
    2.8813   -1.0428    0.2324 C   0  0  0  0  0  0  0  0  0  0  0  0
    4.1833   -0.8603   -0.2485 C   0  0  0  0  0  0  0  0  0  0  0  0
    4.7999   -1.9757   -0.8183 C   0  0  0  0  0  0  0  0  0  0  0  0
    6.0342   -2.1658   -1.3832 N   0  0  0  0  0  0  0  0  0  0  0  0
   12.1545   -2.4893   -1.9755 C   0  0  0  0  0  0  0  0  0  0  0  0
  1  2  1  0
  2  3  1  0
  3  4  2  0
  4  5  1  0
  5  6  2  0
  6  7  1  0
  7  8  1  0
  6  9  1  0
  9 10  1  0
 10 11  1  0
 11 12  1  0
 12 13  2  0
 12 14  1  0
 14 15  1  0
 15 16  1  0
 16 17  1  0
 17 18  1  0
 18 19  1  0
 19 20  1  0
 20 21  2  0
 21 22  1  0
 22 23  2  0
 23 24  1  0
 24 25  2  0
 25 26  1  0
 26 27  2  0
 27 28  1  0
  9 29  2  0
 29  3  1  0
 16 10  1  0
 28 20  1  0
 27 22  1  0
M  END
$$$$
