
     RDKit          3D

 19 20  0  0  0  0  0  0  0  0999 V2000
    8.4449   -2.5638    0.3789 N   0  0  0  0  0  0  0  0  0  0  0  0
    7.8056   -1.2489    0.3672 C   0  0  0  0  0  0  0  0  0  0  0  0
    7.1556   -0.9019    1.6994 C   0  0  0  0  0  0  0  0  0  0  0  0
    5.8264   -1.6033    1.8922 C   0  0  0  0  0  0  0  0  0  0  0  0
    5.6685   -2.4202    2.8027 O   0  0  0  0  0  0  0  0  0  0  0  0
    4.7132   -1.2741    0.9120 C   0  0  0  0  0  0  0  0  0  0  0  0
    3.3357   -1.4686    1.5314 C   0  0  0  0  0  0  0  0  0  0  0  0
    3.0660   -0.4722    2.6453 C   0  0  0  0  0  0  0  0  0  0  0  0
    3.7995    0.5011    2.8334 O   0  0  0  0  0  0  0  0  0  0  0  0
    1.8321   -0.7170    3.4938 C   0  0  0  0  0  0  0  0  0  0  0  0
    0.5818   -0.4334    2.7321 C   0  0  0  0  0  0  0  0  0  0  0  0
    0.0423    0.8138    2.4905 C   0  0  0  0  0  0  0  0  0  0  0  0
   -1.0973    0.6545    1.7510 N   0  0  0  0  0  0  0  0  0  0  0  0
   -1.3108   -0.6739    1.4877 C   0  0  0  0  0  0  0  0  0  0  0  0
   -2.3360   -1.2925    0.7625 C   0  0  0  0  0  0  0  0  0  0  0  0
   -2.3015   -2.6881    0.6476 C   0  0  0  0  0  0  0  0  0  0  0  0
   -1.2814   -3.4285    1.2365 C   0  0  0  0  0  0  0  0  0  0  0  0
   -0.2668   -2.7939    1.9635 C   0  0  0  0  0  0  0  0  0  0  0  0
   -0.2772   -1.3865    2.0938 C   0  0  0  0  0  0  0  0  0  0  0  0
  1  2  1  0
  2  3  1  0
  3  4  1  0
  4  5  2  0
  4  6  1  0
  6  7  1  0
  7  8  1  0
  8  9  2  0
  8 10  1  0
 10 11  1  0
 11 12  2  0
 12 13  1  0
 13 14  1  0
 14 15  2  0
 15 16  1  0
 16 17  2  0
 17 18  1  0
 18 19  2  0
 19 11  1  0
 19 14  1  0
M  END
$$$$
