
     RDKit          3D

 29 32  0  0  0  0  0  0  0  0999 V2000
    2.4754   -4.9551    2.9138 N   0  0  0  0  0  0  0  0  0  0  0  0
    1.8221   -5.6920    3.9914 C   0  0  0  0  0  0  0  0  0  0  0  0
    0.8671   -4.8211    4.7760 C   0  0  0  0  0  0  0  0  0  0  0  0
    1.4218   -4.0668    5.8384 C   0  0  0  0  0  0  0  0  0  0  0  0
    0.6512   -3.1738    6.5837 C   0  0  0  0  0  0  0  0  0  0  0  0
   -0.6857   -3.0127    6.2642 C   0  0  0  0  0  0  0  0  0  0  0  0
   -1.4825   -2.1431    6.9495 O   0  0  0  0  0  0  0  0  0  0  0  0
   -1.2541   -3.7388    5.2249 C   0  0  0  0  0  0  0  0  0  0  0  0
   -0.5045   -4.6692    4.4751 C   0  0  0  0  0  0  0  0  0  0  0  0
   -1.1931   -5.3285    3.4482 N   0  0  0  0  0  0  0  0  0  0  0  0
   -1.0474   -4.6553    2.1434 C   0  0  0  0  0  0  0  0  0  0  0  0
   -1.9585   -5.2856    1.1025 C   0  0  0  0  0  0  0  0  0  0  0  0
   -2.6177   -4.6131    0.3035 O   0  0  0  0  0  0  0  0  0  0  0  0
   -1.9749   -6.7979    1.0363 C   0  0  0  0  0  0  0  0  0  0  0  0
   -1.0815   -7.4021    2.1143 C   0  0  0  0  0  0  0  0  0  0  0  0
   -1.3449   -6.7930    3.5071 C   0  0  0  0  0  0  0  0  0  0  0  0
   -2.7735   -7.1466    3.9772 C   0  0  0  0  0  0  0  0  0  0  0  0
   -2.9857   -6.9833    5.4875 C   0  0  0  0  0  0  0  0  0  0  0  0
   -4.3674   -7.4576    5.9607 C   0  0  0  0  0  0  0  0  0  0  0  0
   -5.4228   -6.5145    5.6226 N   0  0  0  0  0  0  0  0  0  0  0  0
   -5.9763   -6.6179    4.3431 C   0  0  0  0  0  0  0  0  0  0  0  0
   -6.1587   -7.8301    3.7504 N   0  0  0  0  0  0  0  0  0  0  0  0
   -6.6800   -7.8712    2.5026 C   0  0  0  0  0  0  0  0  0  0  0  0
   -7.0392   -6.8421    1.7064 N   0  0  0  0  0  0  0  0  0  0  0  0
   -6.8242   -5.6741    2.3279 C   0  0  0  0  0  0  0  0  0  0  0  0
   -7.0304   -4.4217    1.8221 N   0  0  0  0  0  0  0  0  0  0  0  0
   -6.6653   -3.5223    2.7882 C   0  0  0  0  0  0  0  0  0  0  0  0
   -6.2442   -4.1187    3.8844 N   0  0  0  0  0  0  0  0  0  0  0  0
   -6.3292   -5.4703    3.6039 C   0  0  0  0  0  0  0  0  0  0  0  0
  1  2  1  0
  2  3  1  0
  3  4  2  0
  4  5  1  0
  5  6  2  0
  6  7  1  0
  6  8  1  0
  8  9  2  0
  9 10  1  0
 10 11  1  0
 11 12  1  0
 12 13  2  0
 12 14  1  0
 14 15  1  0
 15 16  1  0
 16 17  1  0
 17 18  1  0
 18 19  1  0
 19 20  1  0
 20 21  1  0
 21 22  2  0
 22 23  1  0
 23 24  2  0
 24 25  1  0
 25 26  1  0
 26 27  1  0
 27 28  2  0
 28 29  1  0
  9  3  1  0
 16 10  1  0
 29 21  1  0
 29 25  2  0
M  END
$$$$
