
     RDKit          3D

 16 17  0  0  0  0  0  0  0  0999 V2000
   51.7823   28.1491  -31.8630 N   0  0  0  0  0  0  0  0  0  0  0  0
   50.8781   28.0172  -30.7208 C   0  0  0  0  0  0  0  0  0  0  0  0
   49.4653   27.6987  -31.1937 C   0  0  0  0  0  0  0  0  0  0  0  0
   48.5034   27.5444  -30.0296 C   0  0  0  0  0  0  0  0  0  0  0  0
   48.8290   27.8051  -28.8720 O   0  0  0  0  0  0  0  0  0  0  0  0
   47.1073   27.0749  -30.3913 C   0  0  0  0  0  0  0  0  0  0  0  0
   46.2138   26.9292  -29.1634 C   0  0  0  0  0  0  0  0  0  0  0  0
   44.8390   26.4659  -29.5297 C   0  0  0  0  0  0  0  0  0  0  0  0
   44.3900   25.1596  -29.5341 C   0  0  0  0  0  0  0  0  0  0  0  0
   43.0802   25.1560  -29.9314 N   0  0  0  0  0  0  0  0  0  0  0  0
   42.6586   26.4380  -30.1944 C   0  0  0  0  0  0  0  0  0  0  0  0
   41.4119   26.9068  -30.6261 C   0  0  0  0  0  0  0  0  0  0  0  0
   41.2659   28.2848  -30.8098 C   0  0  0  0  0  0  0  0  0  0  0  0
   42.3251   29.1565  -30.5695 C   0  0  0  0  0  0  0  0  0  0  0  0
   43.5650   28.6704  -30.1383 C   0  0  0  0  0  0  0  0  0  0  0  0
   43.7397   27.2842  -29.9466 C   0  0  0  0  0  0  0  0  0  0  0  0
  1  2  1  0
  2  3  1  0
  3  4  1  0
  4  5  2  0
  4  6  1  0
  6  7  1  0
  7  8  1  0
  8  9  2  0
  9 10  1  0
 10 11  1  0
 11 12  2  0
 12 13  1  0
 13 14  2  0
 14 15  1  0
 15 16  2  0
 16  8  1  0
 16 11  1  0
M  END
$$$$
