
     RDKit          3D

 19 20  0  0  0  0  0  0  0  0999 V2000
   32.9885    4.0159   28.2837 N   0  0  0  0  0  0  0  0  0  0  0  0
   33.4955    3.4982   27.0182 C   0  0  0  0  0  0  0  0  0  0  0  0
   33.5255    4.5772   25.9460 C   0  0  0  0  0  0  0  0  0  0  0  0
   32.1335    4.9576   25.4858 C   0  0  0  0  0  0  0  0  0  0  0  0
   31.3767    4.1374   24.9621 O   0  0  0  0  0  0  0  0  0  0  0  0
   31.7048    6.3846   25.6756 C   0  0  0  0  0  0  0  0  0  0  0  0
   31.2691    6.6917   27.0814 C   0  0  0  0  0  0  0  0  0  0  0  0
   32.0626    7.1678   27.8963 O   0  0  0  0  0  0  0  0  0  0  0  0
   29.8389    6.3758   27.4581 C   0  0  0  0  0  0  0  0  0  0  0  0
   29.7468    5.0700   28.2331 C   0  0  0  0  0  0  0  0  0  0  0  0
   28.3266    4.6835   28.4979 C   0  0  0  0  0  0  0  0  0  0  0  0
   27.5799    5.0034   29.6146 C   0  0  0  0  0  0  0  0  0  0  0  0
   26.3296    4.4672   29.4629 N   0  0  0  0  0  0  0  0  0  0  0  0
   26.2379    3.8021   28.2627 C   0  0  0  0  0  0  0  0  0  0  0  0
   25.1610    3.1131   27.6918 C   0  0  0  0  0  0  0  0  0  0  0  0
   25.3602    2.5228   26.4402 C   0  0  0  0  0  0  0  0  0  0  0  0
   26.5874    2.6189   25.7886 C   0  0  0  0  0  0  0  0  0  0  0  0
   27.6536    3.3117   26.3735 C   0  0  0  0  0  0  0  0  0  0  0  0
   27.4784    3.9167   27.6353 C   0  0  0  0  0  0  0  0  0  0  0  0
  1  2  1  0
  2  3  1  0
  3  4  1  0
  4  5  2  0
  4  6  1  0
  6  7  1  0
  7  8  2  0
  7  9  1  0
  9 10  1  0
 10 11  1  0
 11 12  2  0
 12 13  1  0
 13 14  1  0
 14 15  2  0
 15 16  1  0
 16 17  2  0
 17 18  1  0
 18 19  2  0
 19 11  1  0
 19 14  1  0
M  END
$$$$
