
     RDKit          3D

 19 20  0  0  0  0  0  0  0  0999 V2000
   13.0871   -2.1219   -3.2948 N   0  0  0  0  0  0  0  0  0  0  0  0
   13.5941   -2.6395   -4.5602 C   0  0  0  0  0  0  0  0  0  0  0  0
   13.6242   -1.5606   -5.6324 C   0  0  0  0  0  0  0  0  0  0  0  0
   12.2321   -1.1801   -6.0927 C   0  0  0  0  0  0  0  0  0  0  0  0
   11.4753   -2.0003   -6.6163 O   0  0  0  0  0  0  0  0  0  0  0  0
   11.8034    0.2469   -5.9028 C   0  0  0  0  0  0  0  0  0  0  0  0
   11.3677    0.5540   -4.4971 C   0  0  0  0  0  0  0  0  0  0  0  0
   12.1612    1.0300   -3.6821 O   0  0  0  0  0  0  0  0  0  0  0  0
    9.9375    0.2381   -4.1204 C   0  0  0  0  0  0  0  0  0  0  0  0
    9.8455   -1.0678   -3.3453 C   0  0  0  0  0  0  0  0  0  0  0  0
    8.4252   -1.4542   -3.0806 C   0  0  0  0  0  0  0  0  0  0  0  0
    7.6786   -1.1343   -1.9639 C   0  0  0  0  0  0  0  0  0  0  0  0
    6.4283   -1.6706   -2.1155 N   0  0  0  0  0  0  0  0  0  0  0  0
    6.3365   -2.3356   -3.3157 C   0  0  0  0  0  0  0  0  0  0  0  0
    5.2596   -3.0246   -3.8866 C   0  0  0  0  0  0  0  0  0  0  0  0
    5.4588   -3.6149   -5.1382 C   0  0  0  0  0  0  0  0  0  0  0  0
    6.6860   -3.5188   -5.7898 C   0  0  0  0  0  0  0  0  0  0  0  0
    7.7522   -2.8261   -5.2049 C   0  0  0  0  0  0  0  0  0  0  0  0
    7.5771   -2.2211   -3.9431 C   0  0  0  0  0  0  0  0  0  0  0  0
  1  2  1  0
  2  3  1  0
  3  4  1  0
  4  5  2  0
  4  6  1  0
  6  7  1  0
  7  8  2  0
  7  9  1  0
  9 10  1  0
 10 11  1  0
 11 12  2  0
 12 13  1  0
 13 14  1  0
 14 15  2  0
 15 16  1  0
 16 17  2  0
 17 18  1  0
 18 19  2  0
 19 11  1  0
 19 14  1  0
M  END
$$$$
