
     RDKit          3D

 30 33  0  0  0  0  0  0  0  0999 V2000
   -4.6431  -18.4467   10.0237 N   0  0  0  0  0  0  0  0  0  0  0  0
   -5.7819  -19.3173    9.7709 C   0  0  0  0  0  0  0  0  0  0  0  0
   -5.6350  -20.0480    8.4270 C   0  0  0  0  0  0  0  0  0  0  0  0
   -6.3412  -19.4293    7.1961 C   0  0  0  0  0  0  0  0  0  0  0  0
   -7.8802  -19.5502    7.3138 C   0  0  0  0  0  0  0  0  0  0  0  0
   -8.6023  -18.6352    6.3307 C   0  0  0  0  0  0  0  0  0  0  0  0
   -8.2700  -17.1594    6.5652 C   0  0  0  0  0  0  0  0  0  0  0  0
   -6.9002  -16.9436    7.2029 C   0  0  0  0  0  0  0  0  0  0  0  0
   -5.9024  -18.0131    6.7505 C   0  0  0  0  0  0  0  0  0  0  0  0
   -4.6098  -17.6655    7.2524 O   0  0  0  0  0  0  0  0  0  0  0  0
   -3.6121  -17.5080    6.2236 N   0  0  0  0  0  0  0  0  0  0  0  0
   -3.7540  -16.3303    5.3877 C   0  0  0  0  0  0  0  0  0  0  0  0
   -2.8909  -16.4457    4.1296 C   0  0  0  0  0  0  0  0  0  0  0  0
   -3.2697  -17.6897    3.3304 C   0  0  0  0  0  0  0  0  0  0  0  0
   -3.4856  -18.9329    4.2139 C   0  0  0  0  0  0  0  0  0  0  0  0
   -3.0748  -18.7441    5.6825 C   0  0  0  0  0  0  0  0  0  0  0  0
   -1.6440  -18.7371    5.7265 O   0  0  0  0  0  0  0  0  0  0  0  0
   -1.1428  -18.9152    7.0593 C   0  0  0  0  0  0  0  0  0  0  0  0
    0.3679  -18.6496    7.0471 C   0  0  0  0  0  0  0  0  0  0  0  0
    1.0497  -19.5965    6.1518 N   0  0  0  0  0  0  0  0  0  0  0  0
    2.3480  -19.0752    5.6926 C   0  0  0  0  0  0  0  0  0  0  0  0
    3.4044  -18.9231    6.7593 C   0  0  0  0  0  0  0  0  0  0  0  0
    3.9453  -20.0480    7.3337 N   0  0  0  0  0  0  0  0  0  0  0  0
    4.9166  -19.9026    8.2622 C   0  0  0  0  0  0  0  0  0  0  0  0
    5.4670  -18.7603    8.7252 N   0  0  0  0  0  0  0  0  0  0  0  0
    4.9023  -17.6957    8.1371 C   0  0  0  0  0  0  0  0  0  0  0  0
    5.2146  -16.3832    8.3533 N   0  0  0  0  0  0  0  0  0  0  0  0
    4.3975  -15.6311    7.5505 C   0  0  0  0  0  0  0  0  0  0  0  0
    3.5909  -16.3812    6.8273 N   0  0  0  0  0  0  0  0  0  0  0  0
    3.8957  -17.6796    7.1822 C   0  0  0  0  0  0  0  0  0  0  0  0
  1  2  1  0
  2  3  1  0
  3  4  1  0
  4  5  1  0
  5  6  1  0
  6  7  1  0
  7  8  1  0
  8  9  1  0
  9 10  1  0
 10 11  1  0
 11 12  1  0
 12 13  1  0
 13 14  1  0
 14 15  1  0
 15 16  1  0
 16 17  1  0
 17 18  1  0
 18 19  1  0
 19 20  1  0
 20 21  1  0
 21 22  1  0
 22 23  2  0
 23 24  1  0
 24 25  2  0
 25 26  1  0
 26 27  1  0
 27 28  1  0
 28 29  2  0
 29 30  1  0
  9  4  1  0
 16 11  1  0
 30 22  1  0
 30 26  2  0
M  END
$$$$
