
     RDKit          3D

 17 18  0  0  0  0  0  0  0  0999 V2000
  -49.6385  -42.8654    4.7818 N   0  0  0  0  0  0  0  0  0  0  0  0
  -49.2401  -42.9390    3.3715 C   0  0  0  0  0  0  0  0  0  0  0  0
  -48.2120  -44.0333    3.0947 C   0  0  0  0  0  0  0  0  0  0  0  0
  -47.4074  -43.9203    2.1700 O   0  0  0  0  0  0  0  0  0  0  0  0
  -48.2574  -45.2961    3.8805 C   0  0  0  0  0  0  0  0  0  0  0  0
  -49.4947  -45.9700    3.9228 C   0  0  0  0  0  0  0  0  0  0  0  0
  -49.6116  -47.1926    4.5800 C   0  0  0  0  0  0  0  0  0  0  0  0
  -48.4929  -47.7447    5.1822 C   0  0  0  0  0  0  0  0  0  0  0  0
  -48.5965  -48.9229    5.8110 F   0  0  0  0  0  0  0  0  0  0  0  0
  -47.2644  -47.0933    5.1426 C   0  0  0  0  0  0  0  0  0  0  0  0
  -47.1139  -45.8497    4.4993 C   0  0  0  0  0  0  0  0  0  0  0  0
  -45.8325  -45.2893    4.5390 N   0  0  0  0  0  0  0  0  0  0  0  0
  -45.6658  -43.9316    5.0675 C   0  0  0  0  0  0  0  0  0  0  0  0
  -44.7708  -43.0723    4.1788 C   0  0  0  0  0  0  0  0  0  0  0  0
  -43.4265  -43.7386    3.8922 C   0  0  0  0  0  0  0  0  0  0  0  0
  -43.5322  -45.2550    3.7244 C   0  0  0  0  0  0  0  0  0  0  0  0
  -44.9606  -45.7065    3.4328 C   0  0  0  0  0  0  0  0  0  0  0  0
  1  2  1  0
  2  3  1  0
  3  4  2  0
  3  5  1  0
  5  6  2  0
  6  7  1  0
  7  8  2  0
  8  9  1  0
  8 10  1  0
 10 11  2  0
 11 12  1  0
 12 13  1  0
 13 14  1  0
 14 15  1  0
 15 16  1  0
 16 17  1  0
 11  5  1  0
 17 12  1  0
M  END
$$$$
