
     RDKit          3D

 30 33  0  0  0  0  0  0  0  0999 V2000
   23.4675   -8.2063  -54.6186 N   0  0  0  0  0  0  0  0  0  0  0  0
   23.1517   -7.2116  -53.5959 C   0  0  0  0  0  0  0  0  0  0  0  0
   22.9182   -5.8012  -54.1562 C   0  0  0  0  0  0  0  0  0  0  0  0
   24.1917   -4.9844  -54.4327 C   0  0  0  0  0  0  0  0  0  0  0  0
   25.0652   -5.5177  -55.5477 C   0  0  0  0  0  0  0  0  0  0  0  0
   24.5939   -5.4298  -56.8665 C   0  0  0  0  0  0  0  0  0  0  0  0
   25.3316   -6.0099  -57.8833 C   0  0  0  0  0  0  0  0  0  0  0  0
   26.4918   -6.6671  -57.6841 N   0  0  0  0  0  0  0  0  0  0  0  0
   26.9394   -6.7236  -56.4077 C   0  0  0  0  0  0  0  0  0  0  0  0
   26.2964   -6.1630  -55.2986 C   0  0  0  0  0  0  0  0  0  0  0  0
   26.8155   -6.2312  -54.0012 N   0  0  0  0  0  0  0  0  0  0  0  0
   27.2617   -7.5580  -53.5338 C   0  0  0  0  0  0  0  0  0  0  0  0
   27.5106   -7.5457  -52.0293 C   0  0  0  0  0  0  0  0  0  0  0  0
   27.2973   -8.5367  -51.3258 O   0  0  0  0  0  0  0  0  0  0  0  0
   28.1907   -6.3203  -51.4524 C   0  0  0  0  0  0  0  0  0  0  0  0
   27.6030   -5.0477  -52.0419 C   0  0  0  0  0  0  0  0  0  0  0  0
   27.6184   -5.0561  -53.5817 C   0  0  0  0  0  0  0  0  0  0  0  0
   29.0330   -5.0681  -54.2089 C   0  0  0  0  0  0  0  0  0  0  0  0
   29.9135   -3.8826  -53.7860 C   0  0  0  0  0  0  0  0  0  0  0  0
   31.3078   -3.9405  -54.4278 C   0  0  0  0  0  0  0  0  0  0  0  0
   32.0998   -4.9725  -53.7797 N   0  0  0  0  0  0  0  0  0  0  0  0
   33.3791   -5.1799  -54.3082 C   0  0  0  0  0  0  0  0  0  0  0  0
   34.0686   -4.1781  -54.9151 N   0  0  0  0  0  0  0  0  0  0  0  0
   35.3132   -4.4349  -55.3813 C   0  0  0  0  0  0  0  0  0  0  0  0
   36.0048   -5.5931  -55.3370 N   0  0  0  0  0  0  0  0  0  0  0  0
   35.2805   -6.5472  -54.7377 C   0  0  0  0  0  0  0  0  0  0  0  0
   35.6496   -7.8403  -54.5076 N   0  0  0  0  0  0  0  0  0  0  0  0
   34.6019   -8.4645  -53.8845 C   0  0  0  0  0  0  0  0  0  0  0  0
   33.5832   -7.6499  -53.6966 N   0  0  0  0  0  0  0  0  0  0  0  0
   34.0039   -6.4396  -54.2166 C   0  0  0  0  0  0  0  0  0  0  0  0
  1  2  1  0
  2  3  1  0
  3  4  1  0
  4  5  1  0
  5  6  2  0
  6  7  1  0
  7  8  2  0
  8  9  1  0
  9 10  2  0
 10 11  1  0
 11 12  1  0
 12 13  1  0
 13 14  2  0
 13 15  1  0
 15 16  1  0
 16 17  1  0
 17 18  1  0
 18 19  1  0
 19 20  1  0
 20 21  1  0
 21 22  1  0
 22 23  2  0
 23 24  1  0
 24 25  2  0
 25 26  1  0
 26 27  1  0
 27 28  1  0
 28 29  2  0
 29 30  1  0
 10  5  1  0
 17 11  1  0
 30 22  1  0
 30 26  2  0
M  END
$$$$
