
     RDKit          3D

 19 20  0  0  0  0  0  0  0  0999 V2000
   -8.3431   23.6375    7.8065 C   0  0  0  0  0  0  0  0  0  0  0  0
   -7.6227   23.6441    6.5392 N   0  0  0  0  0  0  0  0  0  0  0  0
   -6.2544   23.0996    6.6745 C   0  0  0  0  0  0  0  0  0  0  0  0
   -6.2191   21.5530    6.8073 C   0  0  0  0  0  0  0  0  0  0  0  0
   -4.7785   21.0283    6.8118 C   0  0  0  0  0  0  0  0  0  0  0  0
   -4.1557   21.0994    8.1943 C   0  0  0  0  0  0  0  0  0  0  0  0
   -4.5321   21.9231    9.0362 O   0  0  0  0  0  0  0  0  0  0  0  0
   -3.0798   20.0820    8.5273 C   0  0  0  0  0  0  0  0  0  0  0  0
   -1.9617   20.0742    7.5382 C   0  0  0  0  0  0  0  0  0  0  0  0
   -1.6619   19.0612    6.6468 C   0  0  0  0  0  0  0  0  0  0  0  0
   -0.5417   19.4251    5.9459 N   0  0  0  0  0  0  0  0  0  0  0  0
   -0.1218   20.6742    6.3327 C   0  0  0  0  0  0  0  0  0  0  0  0
    0.9570   21.4438    5.8802 C   0  0  0  0  0  0  0  0  0  0  0  0
    1.1575   22.6918    6.4768 C   0  0  0  0  0  0  0  0  0  0  0  0
    0.3142   23.1481    7.4869 C   0  0  0  0  0  0  0  0  0  0  0  0
   -0.7612   22.3657    7.9268 C   0  0  0  0  0  0  0  0  0  0  0  0
   -0.9874   21.1041    7.3386 C   0  0  0  0  0  0  0  0  0  0  0  0
   -6.9203   21.0081    5.6673 O   0  0  0  0  0  0  0  0  0  0  0  0
   -7.5404   19.7558    5.9390 C   0  0  0  0  0  0  0  0  0  0  0  0
  1  2  1  0
  2  3  1  0
  3  4  1  0
  4  5  1  0
  5  6  1  0
  6  7  2  0
  6  8  1  0
  8  9  1  0
  9 10  2  0
 10 11  1  0
 11 12  1  0
 12 13  2  0
 13 14  1  0
 14 15  2  0
 15 16  1  0
 16 17  2  0
  4 18  1  0
 18 19  1  0
 17  9  1  0
 17 12  1  0
M  END
$$$$
