
     RDKit          3D

 29 32  0  0  0  0  0  0  0  0999 V2000
    3.0444   16.8439   31.8838 N   0  0  0  0  0  0  0  0  0  0  0  0
    2.8490   16.8797   33.2777 C   0  0  0  0  0  0  0  0  0  0  0  0
    2.0301   17.8880   33.8095 C   0  0  0  0  0  0  0  0  0  0  0  0
    1.7111   17.9132   35.1670 C   0  0  0  0  0  0  0  0  0  0  0  0
    2.1817   16.8955   35.9928 C   0  0  0  0  0  0  0  0  0  0  0  0
    1.7869   16.8886   37.7174 S   0  0  0  0  0  0  0  0  0  0  0  0
    0.6087   15.6859   37.7925 N   0  0  0  0  0  0  0  0  0  0  0  0
    2.9454   16.4349   38.4483 O   0  0  0  0  0  0  0  0  0  0  0  0
    1.0983   18.1183   38.0373 O   0  0  0  0  0  0  0  0  0  0  0  0
    2.9636   15.8597   35.4766 C   0  0  0  0  0  0  0  0  0  0  0  0
    3.2845   15.8205   34.1127 C   0  0  0  0  0  0  0  0  0  0  0  0
    4.0311   14.7210   33.6643 N   0  0  0  0  0  0  0  0  0  0  0  0
    3.3054   13.7742   32.8116 C   0  0  0  0  0  0  0  0  0  0  0  0
    4.1318   12.4972   32.6784 C   0  0  0  0  0  0  0  0  0  0  0  0
    5.5192   12.7634   32.0907 C   0  0  0  0  0  0  0  0  0  0  0  0
    5.8995   14.2437   32.1109 C   0  0  0  0  0  0  0  0  0  0  0  0
    5.4687   14.9613   33.4041 C   0  0  0  0  0  0  0  0  0  0  0  0
    6.2828   14.5001   34.6554 C   0  0  0  0  0  0  0  0  0  0  0  0
    7.7497   14.5741   34.5930 N   0  0  0  0  0  0  0  0  0  0  0  0
    8.2348   15.9472   34.4407 C   0  0  0  0  0  0  0  0  0  0  0  0
    9.7268   15.9591   34.4676 C   0  0  0  0  0  0  0  0  0  0  0  0
   10.5418   16.3281   33.4996 N   0  0  0  0  0  0  0  0  0  0  0  0
   11.8092   16.1421   33.9974 C   0  0  0  0  0  0  0  0  0  0  0  0
   13.0532   16.3724   33.3923 C   0  0  0  0  0  0  0  0  0  0  0  0
   14.2168   16.0954   34.1214 C   0  0  0  0  0  0  0  0  0  0  0  0
   14.1428   15.5992   35.4261 C   0  0  0  0  0  0  0  0  0  0  0  0
   12.9101   15.3621   36.0459 C   0  0  0  0  0  0  0  0  0  0  0  0
   11.7677   15.6484   35.2961 C   0  0  0  0  0  0  0  0  0  0  0  0
   10.4302   15.5349   35.5687 N   0  0  0  0  0  0  0  0  0  0  0  0
  1  2  1  0
  2  3  2  0
  3  4  1  0
  4  5  2  0
  5  6  1  0
  6  7  1  0
  6  8  2  0
  6  9  2  0
  5 10  1  0
 10 11  2  0
 11 12  1  0
 12 13  1  0
 13 14  1  0
 14 15  1  0
 15 16  1  0
 16 17  1  0
 17 18  1  0
 18 19  1  0
 19 20  1  0
 20 21  1  0
 21 22  2  0
 22 23  1  0
 23 24  2  0
 24 25  1  0
 25 26  2  0
 26 27  1  0
 27 28  2  0
 28 29  1  0
 11  2  1  0
 17 12  1  0
 29 21  1  0
 28 23  1  0
M  END
$$$$
