
     RDKit          3D

 31 34  0  0  0  0  0  0  0  0999 V2000
  -41.4551  -12.1849   56.7948 N   0  0  0  0  0  0  0  0  0  0  0  0
  -40.4494  -13.3072   57.5647 S   0  0  0  0  0  0  0  0  0  0  0  0
  -40.9437  -13.3458   58.9226 O   0  0  0  0  0  0  0  0  0  0  0  0
  -39.1148  -12.8672   57.2155 O   0  0  0  0  0  0  0  0  0  0  0  0
  -40.7971  -14.8404   56.7664 C   0  0  0  0  0  0  0  0  0  0  0  0
  -41.7924  -14.9019   55.7849 C   0  0  0  0  0  0  0  0  0  0  0  0
  -42.0410  -16.1201   55.1847 C   0  0  0  0  0  0  0  0  0  0  0  0
  -41.3776  -17.2494   55.4930 N   0  0  0  0  0  0  0  0  0  0  0  0
  -40.4190  -17.1509   56.4483 C   0  0  0  0  0  0  0  0  0  0  0  0
  -40.0741  -15.9822   57.1315 C   0  0  0  0  0  0  0  0  0  0  0  0
  -39.0846  -15.9633   58.1144 N   0  0  0  0  0  0  0  0  0  0  0  0
  -39.4211  -16.6292   59.3783 C   0  0  0  0  0  0  0  0  0  0  0  0
  -38.3004  -17.5382   59.8728 C   0  0  0  0  0  0  0  0  0  0  0  0
  -36.9549  -16.8175   59.9445 C   0  0  0  0  0  0  0  0  0  0  0  0
  -36.8061  -15.7361   58.8707 C   0  0  0  0  0  0  0  0  0  0  0  0
  -37.6917  -15.9959   57.6306 C   0  0  0  0  0  0  0  0  0  0  0  0
  -37.2455  -17.1762   56.8902 N   0  0  0  0  0  0  0  0  0  0  0  0
  -36.3872  -16.8556   55.7628 C   0  0  0  0  0  0  0  0  0  0  0  0
  -35.0103  -16.4562   55.9688 N   0  0  0  0  0  0  0  0  0  0  0  0
  -34.1308  -17.3211   56.6620 C   0  0  0  0  0  0  0  0  0  0  0  0
  -34.1832  -18.7101   56.5184 C   0  0  0  0  0  0  0  0  0  0  0  0
  -33.3072  -19.4925   57.2504 C   0  0  0  0  0  0  0  0  0  0  0  0
  -32.3867  -18.9961   58.0968 N   0  0  0  0  0  0  0  0  0  0  0  0
  -32.3174  -17.6447   58.1842 C   0  0  0  0  0  0  0  0  0  0  0  0
  -33.1243  -16.7454   57.4839 C   0  0  0  0  0  0  0  0  0  0  0  0
  -33.0179  -15.3456   57.5723 N   0  0  0  0  0  0  0  0  0  0  0  0
  -32.4525  -14.6967   56.3736 C   0  0  0  0  0  0  0  0  0  0  0  0
  -30.9444  -14.5001   56.5096 C   0  0  0  0  0  0  0  0  0  0  0  0
  -30.6086  -13.7298   57.7814 C   0  0  0  0  0  0  0  0  0  0  0  0
  -31.1781  -14.4399   59.0048 C   0  0  0  0  0  0  0  0  0  0  0  0
  -32.6734  -14.7235   58.8579 C   0  0  0  0  0  0  0  0  0  0  0  0
  1  2  1  0
  2  3  2  0
  2  4  2  0
  2  5  1  0
  5  6  2  0
  6  7  1  0
  7  8  2  0
  8  9  1  0
  9 10  2  0
 10 11  1  0
 11 12  1  0
 12 13  1  0
 13 14  1  0
 14 15  1  0
 15 16  1  0
 16 17  1  0
 17 18  1  0
 18 19  1  0
 19 20  1  0
 20 21  2  0
 21 22  1  0
 22 23  2  0
 23 24  1  0
 24 25  2  0
 25 26  1  0
 26 27  1  0
 27 28  1  0
 28 29  1  0
 29 30  1  0
 30 31  1  0
 10  5  1  0
 16 11  1  0
 25 20  1  0
 31 26  1  0
M  END
$$$$
