
     RDKit          3D

 28 31  0  0  0  0  0  0  0  0999 V2000
   -4.2958    0.0582   -9.9747 N   0  0  0  0  0  0  0  0  0  0  0  0
   -4.0531    1.3978   -9.8095 C   0  0  0  0  0  0  0  0  0  0  0  0
   -4.2365    2.1876  -10.7261 O   0  0  0  0  0  0  0  0  0  0  0  0
   -3.5799    1.8069   -8.4602 C   0  0  0  0  0  0  0  0  0  0  0  0
   -4.3230    1.3738   -7.3493 C   0  0  0  0  0  0  0  0  0  0  0  0
   -3.9321    1.7315   -6.0606 C   0  0  0  0  0  0  0  0  0  0  0  0
   -2.8060    2.5271   -5.8775 C   0  0  0  0  0  0  0  0  0  0  0  0
   -2.0656    2.9634   -6.9803 C   0  0  0  0  0  0  0  0  0  0  0  0
   -2.4264    2.6054   -8.2929 C   0  0  0  0  0  0  0  0  0  0  0  0
   -1.6731    3.0358   -9.4061 N   0  0  0  0  0  0  0  0  0  0  0  0
   -2.1352    4.3989   -9.8016 C   0  0  0  0  0  0  0  0  0  0  0  0
   -1.4402    4.8448  -11.0748 C   0  0  0  0  0  0  0  0  0  0  0  0
   -1.5629    5.9842  -11.5259 O   0  0  0  0  0  0  0  0  0  0  0  0
   -0.5989    3.8023  -11.7579 C   0  0  0  0  0  0  0  0  0  0  0  0
    0.4013    3.2302  -10.7605 C   0  0  0  0  0  0  0  0  0  0  0  0
   -0.1916    2.9010   -9.3605 C   0  0  0  0  0  0  0  0  0  0  0  0
    0.2615    1.4700   -8.9218 C   0  0  0  0  0  0  0  0  0  0  0  0
    1.7208    1.2584   -8.8661 N   0  0  0  0  0  0  0  0  0  0  0  0
    2.3226    1.9117   -7.6964 C   0  0  0  0  0  0  0  0  0  0  0  0
    3.8086    2.0163   -7.8233 C   0  0  0  0  0  0  0  0  0  0  0  0
    4.5369    3.1015   -7.6307 N   0  0  0  0  0  0  0  0  0  0  0  0
    5.8381    2.7223   -7.8554 C   0  0  0  0  0  0  0  0  0  0  0  0
    7.0167    3.4809   -7.8079 C   0  0  0  0  0  0  0  0  0  0  0  0
    8.2364    2.8430   -8.0757 C   0  0  0  0  0  0  0  0  0  0  0  0
    8.2806    1.4796   -8.3834 C   0  0  0  0  0  0  0  0  0  0  0  0
    7.1134    0.7085   -8.4409 C   0  0  0  0  0  0  0  0  0  0  0  0
    5.9131    1.3689   -8.1691 C   0  0  0  0  0  0  0  0  0  0  0  0
    4.6093    0.9459   -8.1463 N   0  0  0  0  0  0  0  0  0  0  0  0
  1  2  1  0
  2  3  2  0
  2  4  1  0
  4  5  2  0
  5  6  1  0
  6  7  2  0
  7  8  1  0
  8  9  2  0
  9 10  1  0
 10 11  1  0
 11 12  1  0
 12 13  2  0
 12 14  1  0
 14 15  1  0
 15 16  1  0
 16 17  1  0
 17 18  1  0
 18 19  1  0
 19 20  1  0
 20 21  2  0
 21 22  1  0
 22 23  2  0
 23 24  1  0
 24 25  2  0
 25 26  1  0
 26 27  2  0
 27 28  1  0
  9  4  1  0
 16 10  1  0
 28 20  1  0
 27 22  1  0
M  END
$$$$
