
     RDKit          3D

 19 20  0  0  0  0  0  0  0  0999 V2000
   -2.8014   15.4679   -1.4122 N   0  0  0  0  0  0  0  0  0  0  0  0
   -2.2944   14.9502   -2.6777 C   0  0  0  0  0  0  0  0  0  0  0  0
   -2.2644   16.0292   -3.7499 C   0  0  0  0  0  0  0  0  0  0  0  0
   -3.6564   16.4096   -4.2101 C   0  0  0  0  0  0  0  0  0  0  0  0
   -4.4132   15.5894   -4.7338 O   0  0  0  0  0  0  0  0  0  0  0  0
   -4.0851   17.8366   -4.0203 C   0  0  0  0  0  0  0  0  0  0  0  0
   -4.5208   18.1437   -2.6145 C   0  0  0  0  0  0  0  0  0  0  0  0
   -3.7273   18.6198   -1.7996 O   0  0  0  0  0  0  0  0  0  0  0  0
   -5.9510   17.8278   -2.2379 C   0  0  0  0  0  0  0  0  0  0  0  0
   -6.0430   16.5220   -1.4628 C   0  0  0  0  0  0  0  0  0  0  0  0
   -7.4633   16.1355   -1.1980 C   0  0  0  0  0  0  0  0  0  0  0  0
   -8.2100   16.4555   -0.0813 C   0  0  0  0  0  0  0  0  0  0  0  0
   -9.4602   15.9192   -0.2330 N   0  0  0  0  0  0  0  0  0  0  0  0
   -9.5520   15.2541   -1.4332 C   0  0  0  0  0  0  0  0  0  0  0  0
  -10.6289   14.5652   -2.0041 C   0  0  0  0  0  0  0  0  0  0  0  0
  -10.4297   13.9749   -3.2557 C   0  0  0  0  0  0  0  0  0  0  0  0
   -9.2025   14.0709   -3.9073 C   0  0  0  0  0  0  0  0  0  0  0  0
   -8.1363   14.7637   -3.3224 C   0  0  0  0  0  0  0  0  0  0  0  0
   -8.3114   15.3687   -2.0606 C   0  0  0  0  0  0  0  0  0  0  0  0
  1  2  1  0
  2  3  1  0
  3  4  1  0
  4  5  2  0
  4  6  1  0
  6  7  1  0
  7  8  2  0
  7  9  1  0
  9 10  1  0
 10 11  1  0
 11 12  2  0
 12 13  1  0
 13 14  1  0
 14 15  2  0
 15 16  1  0
 16 17  2  0
 17 18  1  0
 18 19  2  0
 19 11  1  0
 19 14  1  0
M  END
$$$$
