
     RDKit          3D

 26 29  0  0  0  0  0  0  0  0999 V2000
    3.3164    7.7175   13.2069 N   0  0  0  0  0  0  0  0  0  0  0  0
    3.4172    6.3075   13.2390 C   0  0  0  0  0  0  0  0  0  0  0  0
    2.5147    5.5668   13.9995 C   0  0  0  0  0  0  0  0  0  0  0  0
    2.5746    4.1853   13.9355 C   0  0  0  0  0  0  0  0  0  0  0  0
    3.4355    3.5060   13.1511 N   0  0  0  0  0  0  0  0  0  0  0  0
    4.2590    4.2494   12.3743 C   0  0  0  0  0  0  0  0  0  0  0  0
    4.3023    5.6457   12.3586 C   0  0  0  0  0  0  0  0  0  0  0  0
    5.1415    6.4098   11.5183 N   0  0  0  0  0  0  0  0  0  0  0  0
    4.4418    6.8447   10.2864 C   0  0  0  0  0  0  0  0  0  0  0  0
    4.7346    5.9257    9.1103 C   0  0  0  0  0  0  0  0  0  0  0  0
    3.9038    5.6971    8.2302 O   0  0  0  0  0  0  0  0  0  0  0  0
    6.1210    5.3302    9.0370 C   0  0  0  0  0  0  0  0  0  0  0  0
    7.0638    6.0759    9.9701 C   0  0  0  0  0  0  0  0  0  0  0  0
    6.5624    5.9990   11.4216 C   0  0  0  0  0  0  0  0  0  0  0  0
    7.4013    6.9174   12.3577 C   0  0  0  0  0  0  0  0  0  0  0  0
    8.8542    6.6761   12.3638 N   0  0  0  0  0  0  0  0  0  0  0  0
    9.1915    5.4304   13.0703 C   0  0  0  0  0  0  0  0  0  0  0  0
   10.6739    5.2661   13.1506 C   0  0  0  0  0  0  0  0  0  0  0  0
   11.3888    4.9930   14.2237 N   0  0  0  0  0  0  0  0  0  0  0  0
   12.6931    4.9392   13.7940 C   0  0  0  0  0  0  0  0  0  0  0  0
   13.8663    4.6821   14.5175 C   0  0  0  0  0  0  0  0  0  0  0  0
   15.0906    4.6885   13.8365 C   0  0  0  0  0  0  0  0  0  0  0  0
   15.1449    4.9467   12.4643 C   0  0  0  0  0  0  0  0  0  0  0  0
   13.9843    5.2057   11.7254 C   0  0  0  0  0  0  0  0  0  0  0  0
   12.7784    5.1906   12.4292 C   0  0  0  0  0  0  0  0  0  0  0  0
   11.4800    5.3954   12.0448 N   0  0  0  0  0  0  0  0  0  0  0  0
  1  2  1  0
  2  3  2  0
  3  4  1  0
  4  5  2  0
  5  6  1  0
  6  7  2  0
  7  8  1  0
  8  9  1  0
  9 10  1  0
 10 11  2  0
 10 12  1  0
 12 13  1  0
 13 14  1  0
 14 15  1  0
 15 16  1  0
 16 17  1  0
 17 18  1  0
 18 19  2  0
 19 20  1  0
 20 21  2  0
 21 22  1  0
 22 23  2  0
 23 24  1  0
 24 25  2  0
 25 26  1  0
  7  2  1  0
 14  8  1  0
 26 18  1  0
 25 20  1  0
M  END
$$$$
