
     RDKit          3D

 17 18  0  0  0  0  0  0  0  0999 V2000
    0.8707    0.5382   -1.0422 C   0  0  0  0  0  0  0  0  0  0  0  0
    0.1872    1.7505   -0.7510 O   0  0  0  0  0  0  0  0  0  0  0  0
    0.9629    2.8355   -0.4502 C   0  0  0  0  0  0  0  0  0  0  0  0
    0.2619    4.0046   -0.1908 C   0  0  0  0  0  0  0  0  0  0  0  0
    0.9417    5.1802    0.1346 C   0  0  0  0  0  0  0  0  0  0  0  0
    2.3467    5.2238    0.2223 C   0  0  0  0  0  0  0  0  0  0  0  0
    3.0375    6.5222    0.5996 C   0  0  0  0  0  0  0  0  0  0  0  0
    2.2637    7.5439    1.4569 C   0  0  0  0  0  0  0  0  0  0  0  0
    1.3552    8.3900    0.6810 N   0  0  0  0  0  0  0  0  0  0  0  0
    3.0686    4.0447   -0.0769 C   0  0  0  0  0  0  0  0  0  0  0  0
    4.4645    3.9131   -0.0856 N   0  0  0  0  0  0  0  0  0  0  0  0
    5.2328    4.8162   -0.9429 C   0  0  0  0  0  0  0  0  0  0  0  0
    6.6079    4.1967   -1.1995 C   0  0  0  0  0  0  0  0  0  0  0  0
    7.3176    3.8742    0.1160 C   0  0  0  0  0  0  0  0  0  0  0  0
    6.4415    2.9963    1.0100 C   0  0  0  0  0  0  0  0  0  0  0  0
    5.0574    3.6133    1.2212 C   0  0  0  0  0  0  0  0  0  0  0  0
    2.3541    2.8651   -0.3923 C   0  0  0  0  0  0  0  0  0  0  0  0
  1  2  1  0
  2  3  1  0
  3  4  2  0
  4  5  1  0
  5  6  2  0
  6  7  1  0
  7  8  1  0
  8  9  1  0
  6 10  1  0
 10 11  1  0
 11 12  1  0
 12 13  1  0
 13 14  1  0
 14 15  1  0
 15 16  1  0
 10 17  2  0
 17  3  1  0
 16 11  1  0
M  END
$$$$
