
     RDKit          3D

 18 19  0  0  0  0  0  0  0  0999 V2000
   -2.6793    5.1537   16.3083 C   0  0  0  0  0  0  0  0  0  0  0  0
   -3.4010    5.6309   17.4787 N   0  0  0  0  0  0  0  0  0  0  0  0
   -4.5869    4.8274   17.7831 C   0  0  0  0  0  0  0  0  0  0  0  0
   -5.7651    5.1139   16.8453 C   0  0  0  0  0  0  0  0  0  0  0  0
   -7.0012    4.2562   17.1440 C   0  0  0  0  0  0  0  0  0  0  0  0
   -7.6692    4.5948   18.4794 C   0  0  0  0  0  0  0  0  0  0  0  0
   -8.9063    3.7395   18.7737 C   0  0  0  0  0  0  0  0  0  0  0  0
  -10.0770    4.0122   17.8267 C   0  0  0  0  0  0  0  0  0  0  0  0
  -11.3196    3.2227   18.2441 C   0  0  0  0  0  0  0  0  0  0  0  0
  -12.4663    3.4797   17.3093 C   0  0  0  0  0  0  0  0  0  0  0  0
  -12.6039    2.6638   16.2187 N   0  0  0  0  0  0  0  0  0  0  0  0
  -13.6229    2.8949   15.3604 C   0  0  0  0  0  0  0  0  0  0  0  0
  -14.5618    3.8598   15.4230 N   0  0  0  0  0  0  0  0  0  0  0  0
  -14.3739    4.6317   16.5028 C   0  0  0  0  0  0  0  0  0  0  0  0
  -15.1262    5.7045   16.8822 N   0  0  0  0  0  0  0  0  0  0  0  0
  -14.5825    6.2015   18.0351 C   0  0  0  0  0  0  0  0  0  0  0  0
  -13.5285    5.5116   18.4182 N   0  0  0  0  0  0  0  0  0  0  0  0
  -13.3869    4.5233   17.4684 C   0  0  0  0  0  0  0  0  0  0  0  0
  1  2  1  0
  2  3  1  0
  3  4  1  0
  4  5  1  0
  5  6  1  0
  6  7  1  0
  7  8  1  0
  8  9  1  0
  9 10  1  0
 10 11  2  0
 11 12  1  0
 12 13  2  0
 13 14  1  0
 14 15  1  0
 15 16  1  0
 16 17  2  0
 17 18  1  0
 18 10  1  0
 18 14  2  0
M  END
$$$$
