
     RDKit          3D

 19 20  0  0  0  0  0  0  0  0999 V2000
   -6.1736    2.9306   15.1402 N   0  0  0  0  0  0  0  0  0  0  0  0
   -5.6666    2.4129   13.8747 C   0  0  0  0  0  0  0  0  0  0  0  0
   -5.6366    3.4918   12.8025 C   0  0  0  0  0  0  0  0  0  0  0  0
   -7.0286    3.8723   12.3423 C   0  0  0  0  0  0  0  0  0  0  0  0
   -7.7854    3.0521   11.8186 O   0  0  0  0  0  0  0  0  0  0  0  0
   -7.4573    5.2993   12.5321 C   0  0  0  0  0  0  0  0  0  0  0  0
   -7.8930    5.6064   13.9379 C   0  0  0  0  0  0  0  0  0  0  0  0
   -7.0995    6.0825   14.7528 O   0  0  0  0  0  0  0  0  0  0  0  0
   -9.3232    5.2905   14.3146 C   0  0  0  0  0  0  0  0  0  0  0  0
   -9.4153    3.9847   15.0896 C   0  0  0  0  0  0  0  0  0  0  0  0
  -10.8355    3.5982   15.3544 C   0  0  0  0  0  0  0  0  0  0  0  0
  -11.5822    3.9181   16.4711 C   0  0  0  0  0  0  0  0  0  0  0  0
  -12.8325    3.3818   16.3195 N   0  0  0  0  0  0  0  0  0  0  0  0
  -12.9242    2.7168   15.1192 C   0  0  0  0  0  0  0  0  0  0  0  0
  -14.0011    2.0278   14.5483 C   0  0  0  0  0  0  0  0  0  0  0  0
  -13.8019    1.4375   13.2967 C   0  0  0  0  0  0  0  0  0  0  0  0
  -12.5747    1.5336   12.6451 C   0  0  0  0  0  0  0  0  0  0  0  0
  -11.5085    2.2264   13.2300 C   0  0  0  0  0  0  0  0  0  0  0  0
  -11.6837    2.8314   14.4918 C   0  0  0  0  0  0  0  0  0  0  0  0
  1  2  1  0
  2  3  1  0
  3  4  1  0
  4  5  2  0
  4  6  1  0
  6  7  1  0
  7  8  2  0
  7  9  1  0
  9 10  1  0
 10 11  1  0
 11 12  2  0
 12 13  1  0
 13 14  1  0
 14 15  2  0
 15 16  1  0
 16 17  2  0
 17 18  1  0
 18 19  2  0
 19 11  1  0
 19 14  1  0
M  END
$$$$
