
     RDKit          3D

 19 20  0  0  0  0  0  0  0  0999 V2000
  -35.0922  -31.3771  -33.4039 N   0  0  0  0  0  0  0  0  0  0  0  0
  -34.5852  -31.8948  -34.6693 C   0  0  0  0  0  0  0  0  0  0  0  0
  -34.5552  -30.8158  -35.7415 C   0  0  0  0  0  0  0  0  0  0  0  0
  -35.9472  -30.4354  -36.2018 C   0  0  0  0  0  0  0  0  0  0  0  0
  -36.7040  -31.2556  -36.7254 O   0  0  0  0  0  0  0  0  0  0  0  0
  -36.3759  -29.0084  -36.0119 C   0  0  0  0  0  0  0  0  0  0  0  0
  -36.8116  -28.7013  -34.6062 C   0  0  0  0  0  0  0  0  0  0  0  0
  -36.0181  -28.2252  -33.7912 O   0  0  0  0  0  0  0  0  0  0  0  0
  -38.2418  -29.0172  -34.2295 C   0  0  0  0  0  0  0  0  0  0  0  0
  -38.3339  -30.3230  -33.4544 C   0  0  0  0  0  0  0  0  0  0  0  0
  -39.7541  -30.7095  -33.1897 C   0  0  0  0  0  0  0  0  0  0  0  0
  -40.5008  -30.3895  -32.0730 C   0  0  0  0  0  0  0  0  0  0  0  0
  -41.7511  -30.9258  -32.2246 N   0  0  0  0  0  0  0  0  0  0  0  0
  -41.8428  -31.5909  -33.4248 C   0  0  0  0  0  0  0  0  0  0  0  0
  -42.9197  -32.2798  -33.9957 C   0  0  0  0  0  0  0  0  0  0  0  0
  -42.7205  -32.8701  -35.2473 C   0  0  0  0  0  0  0  0  0  0  0  0
  -41.4933  -32.7741  -35.8989 C   0  0  0  0  0  0  0  0  0  0  0  0
  -40.4271  -32.0813  -35.3140 C   0  0  0  0  0  0  0  0  0  0  0  0
  -40.6023  -31.4763  -34.0522 C   0  0  0  0  0  0  0  0  0  0  0  0
  1  2  1  0
  2  3  1  0
  3  4  1  0
  4  5  2  0
  4  6  1  0
  6  7  1  0
  7  8  2  0
  7  9  1  0
  9 10  1  0
 10 11  1  0
 11 12  2  0
 12 13  1  0
 13 14  1  0
 14 15  2  0
 15 16  1  0
 16 17  2  0
 17 18  1  0
 18 19  2  0
 19 11  1  0
 19 14  1  0
M  END
$$$$
