
     RDKit          3D

 22 24  0  0  0  0  0  0  0  0999 V2000
   -6.4351   -8.9412  -16.4415 N   0  0  0  0  0  0  0  0  0  0  0  0
   -5.1056   -8.6149  -16.4426 C   0  0  0  0  0  0  0  0  0  0  0  0
   -4.2590   -9.4124  -16.8284 O   0  0  0  0  0  0  0  0  0  0  0  0
   -4.7365   -7.2651  -15.9291 C   0  0  0  0  0  0  0  0  0  0  0  0
   -5.6045   -6.1861  -16.1837 C   0  0  0  0  0  0  0  0  0  0  0  0
   -5.2805   -4.9094  -15.7346 C   0  0  0  0  0  0  0  0  0  0  0  0
   -4.0986   -4.7193  -15.0351 C   0  0  0  0  0  0  0  0  0  0  0  0
   -3.7908   -3.4940  -14.5903 F   0  0  0  0  0  0  0  0  0  0  0  0
   -3.2256   -5.7771  -14.7847 C   0  0  0  0  0  0  0  0  0  0  0  0
   -3.5050   -7.0716  -15.2494 C   0  0  0  0  0  0  0  0  0  0  0  0
   -2.6827   -8.1625  -14.9391 N   0  0  0  0  0  0  0  0  0  0  0  0
   -1.2745   -8.0323  -14.6343 C   0  0  0  0  0  0  0  0  0  0  0  0
   -0.5930   -7.7274  -15.8591 N   0  0  0  0  0  0  0  0  0  0  0  0
    0.7105   -7.4128  -15.8028 C   0  0  0  0  0  0  0  0  0  0  0  0
    1.5341   -7.5020  -14.7865 N   0  0  0  0  0  0  0  0  0  0  0  0
    2.7464   -7.0567  -15.2558 C   0  0  0  0  0  0  0  0  0  0  0  0
    3.9768   -6.9363  -14.5939 C   0  0  0  0  0  0  0  0  0  0  0  0
    5.0788   -6.4486  -15.3086 C   0  0  0  0  0  0  0  0  0  0  0  0
    4.9579   -6.0892  -16.6538 C   0  0  0  0  0  0  0  0  0  0  0  0
    3.7382   -6.2028  -17.3316 C   0  0  0  0  0  0  0  0  0  0  0  0
    2.6575   -6.6901  -16.5940 C   0  0  0  0  0  0  0  0  0  0  0  0
    1.3474   -6.9325  -16.9160 N   0  0  0  0  0  0  0  0  0  0  0  0
  1  2  1  0
  2  3  2  0
  2  4  1  0
  4  5  2  0
  5  6  1  0
  6  7  2  0
  7  8  1  0
  7  9  1  0
  9 10  2  0
 10 11  1  0
 11 12  1  0
 12 13  1  0
 13 14  1  0
 14 15  2  0
 15 16  1  0
 16 17  2  0
 17 18  1  0
 18 19  2  0
 19 20  1  0
 20 21  2  0
 21 22  1  0
 10  4  1  0
 22 14  1  0
 21 16  1  0
M  END
$$$$
