
     RDKit          3D

 30 33  0  0  0  0  0  0  0  0999 V2000
  -28.0898   11.4202   10.4363 N   0  0  0  0  0  0  0  0  0  0  0  0
  -28.7152   10.5241   11.4138 C   0  0  0  0  0  0  0  0  0  0  0  0
  -28.5706    9.0619   10.9805 C   0  0  0  0  0  0  0  0  0  0  0  0
  -29.2009    8.0661   11.9376 C   0  0  0  0  0  0  0  0  0  0  0  0
  -30.2678    7.2815   11.4435 C   0  0  0  0  0  0  0  0  0  0  0  0
  -30.9226    6.3506   12.2510 C   0  0  0  0  0  0  0  0  0  0  0  0
  -30.5138    6.1965   13.5650 C   0  0  0  0  0  0  0  0  0  0  0  0
  -31.1127    5.2946   14.3973 O   0  0  0  0  0  0  0  0  0  0  0  0
  -29.4661    6.9576   14.0756 C   0  0  0  0  0  0  0  0  0  0  0  0
  -28.7816    7.9020   13.2803 C   0  0  0  0  0  0  0  0  0  0  0  0
  -27.7148    8.6348   13.8208 N   0  0  0  0  0  0  0  0  0  0  0  0
  -27.9023    9.1409   15.1929 C   0  0  0  0  0  0  0  0  0  0  0  0
  -27.0389   10.3775   15.3953 C   0  0  0  0  0  0  0  0  0  0  0  0
  -27.3934   11.3279   16.0987 O   0  0  0  0  0  0  0  0  0  0  0  0
  -25.6972   10.3787   14.6992 C   0  0  0  0  0  0  0  0  0  0  0  0
  -25.3030    8.9494   14.3540 C   0  0  0  0  0  0  0  0  0  0  0  0
  -26.3234    8.2944   13.3955 C   0  0  0  0  0  0  0  0  0  0  0  0
  -26.0876    6.7704   13.2937 C   0  0  0  0  0  0  0  0  0  0  0  0
  -24.6947    6.3270   12.8196 C   0  0  0  0  0  0  0  0  0  0  0  0
  -24.3801    6.6867   11.3630 C   0  0  0  0  0  0  0  0  0  0  0  0
  -24.1120    8.1048   11.1962 N   0  0  0  0  0  0  0  0  0  0  0  0
  -22.7950    8.5377   11.3738 C   0  0  0  0  0  0  0  0  0  0  0  0
  -21.9236    7.8475   12.1578 N   0  0  0  0  0  0  0  0  0  0  0  0
  -20.6680    8.3263   12.3169 C   0  0  0  0  0  0  0  0  0  0  0  0
  -20.1231    9.4438   11.7906 N   0  0  0  0  0  0  0  0  0  0  0  0
  -21.0180   10.0860   11.0268 C   0  0  0  0  0  0  0  0  0  0  0  0
  -20.8266   11.2447   10.3317 N   0  0  0  0  0  0  0  0  0  0  0  0
  -21.9964   11.5323    9.6789 C   0  0  0  0  0  0  0  0  0  0  0  0
  -22.9300   10.6338    9.9192 N   0  0  0  0  0  0  0  0  0  0  0  0
  -22.3281    9.7213   10.7660 C   0  0  0  0  0  0  0  0  0  0  0  0
  1  2  1  0
  2  3  1  0
  3  4  1  0
  4  5  2  0
  5  6  1  0
  6  7  2  0
  7  8  1  0
  7  9  1  0
  9 10  2  0
 10 11  1  0
 11 12  1  0
 12 13  1  0
 13 14  2  0
 13 15  1  0
 15 16  1  0
 16 17  1  0
 17 18  1  0
 18 19  1  0
 19 20  1  0
 20 21  1  0
 21 22  1  0
 22 23  2  0
 23 24  1  0
 24 25  2  0
 25 26  1  0
 26 27  1  0
 27 28  1  0
 28 29  2  0
 29 30  1  0
 10  4  1  0
 17 11  1  0
 30 22  1  0
 30 26  2  0
M  END
$$$$
