
     RDKit          3D

 19 20  0  0  0  0  0  0  0  0999 V2000
   27.1153   20.2426  -57.9368 N   0  0  0  0  0  0  0  0  0  0  0  0
   27.6224   19.7249  -59.2022 C   0  0  0  0  0  0  0  0  0  0  0  0
   27.6524   20.8039  -60.2744 C   0  0  0  0  0  0  0  0  0  0  0  0
   26.2603   21.1843  -60.7347 C   0  0  0  0  0  0  0  0  0  0  0  0
   25.5036   20.3641  -61.2583 O   0  0  0  0  0  0  0  0  0  0  0  0
   25.8317   22.6113  -60.5448 C   0  0  0  0  0  0  0  0  0  0  0  0
   25.3960   22.9184  -59.1391 C   0  0  0  0  0  0  0  0  0  0  0  0
   26.1894   23.3945  -58.3241 O   0  0  0  0  0  0  0  0  0  0  0  0
   23.9657   22.6025  -58.7624 C   0  0  0  0  0  0  0  0  0  0  0  0
   23.8737   21.2967  -57.9873 C   0  0  0  0  0  0  0  0  0  0  0  0
   22.4534   20.9102  -57.7226 C   0  0  0  0  0  0  0  0  0  0  0  0
   21.7068   21.2301  -56.6059 C   0  0  0  0  0  0  0  0  0  0  0  0
   20.4565   20.6938  -56.7575 N   0  0  0  0  0  0  0  0  0  0  0  0
   20.3648   20.0288  -57.9577 C   0  0  0  0  0  0  0  0  0  0  0  0
   19.2879   19.3398  -58.5286 C   0  0  0  0  0  0  0  0  0  0  0  0
   19.4870   18.7495  -59.7802 C   0  0  0  0  0  0  0  0  0  0  0  0
   20.7142   18.8456  -60.4318 C   0  0  0  0  0  0  0  0  0  0  0  0
   21.7804   19.5384  -59.8469 C   0  0  0  0  0  0  0  0  0  0  0  0
   21.6053   20.1434  -58.5851 C   0  0  0  0  0  0  0  0  0  0  0  0
  1  2  1  0
  2  3  1  0
  3  4  1  0
  4  5  2  0
  4  6  1  0
  6  7  1  0
  7  8  2  0
  7  9  1  0
  9 10  1  0
 10 11  1  0
 11 12  2  0
 12 13  1  0
 13 14  1  0
 14 15  2  0
 15 16  1  0
 16 17  2  0
 17 18  1  0
 18 19  2  0
 19 11  1  0
 19 14  1  0
M  END
$$$$
