
     RDKit          3D

 29 32  0  0  0  0  0  0  0  0999 V2000
  -11.1782   -9.0773  -13.3290 N   0  0  0  0  0  0  0  0  0  0  0  0
   -9.8426   -8.6384  -13.7221 C   0  0  0  0  0  0  0  0  0  0  0  0
   -9.2063   -7.7686  -12.6644 C   0  0  0  0  0  0  0  0  0  0  0  0
   -9.6312   -6.4327  -12.5513 C   0  0  0  0  0  0  0  0  0  0  0  0
   -9.0533   -5.6160  -11.5952 C   0  0  0  0  0  0  0  0  0  0  0  0
   -8.0949   -6.0274  -10.7468 N   0  0  0  0  0  0  0  0  0  0  0  0
   -7.7048   -7.3218  -10.8651 C   0  0  0  0  0  0  0  0  0  0  0  0
   -8.2011   -8.2434  -11.7970 C   0  0  0  0  0  0  0  0  0  0  0  0
   -7.7665   -9.5788  -11.8738 N   0  0  0  0  0  0  0  0  0  0  0  0
   -8.5859  -10.4710  -11.0303 C   0  0  0  0  0  0  0  0  0  0  0  0
   -8.3017  -11.9304  -11.3656 C   0  0  0  0  0  0  0  0  0  0  0  0
   -9.1684  -12.8025  -11.2725 O   0  0  0  0  0  0  0  0  0  0  0  0
   -6.8639  -12.3124  -11.6495 C   0  0  0  0  0  0  0  0  0  0  0  0
   -6.1375  -11.2332  -12.4455 C   0  0  0  0  0  0  0  0  0  0  0  0
   -6.3186   -9.8213  -11.8346 C   0  0  0  0  0  0  0  0  0  0  0  0
   -5.6076   -9.7061  -10.5565 N   0  0  0  0  0  0  0  0  0  0  0  0
   -4.1782   -9.4077  -10.6947 C   0  0  0  0  0  0  0  0  0  0  0  0
   -3.9175   -7.9298  -11.0122 C   0  0  0  0  0  0  0  0  0  0  0  0
   -2.4230   -7.6015  -11.0224 C   0  0  0  0  0  0  0  0  0  0  0  0
   -1.7629   -8.2963  -12.1192 N   0  0  0  0  0  0  0  0  0  0  0  0
   -0.4225   -8.2271  -12.2730 C   0  0  0  0  0  0  0  0  0  0  0  0
    0.2155   -8.1525  -13.4149 N   0  0  0  0  0  0  0  0  0  0  0  0
    1.5505   -8.1318  -13.0904 C   0  0  0  0  0  0  0  0  0  0  0  0
    2.6770   -8.0531  -13.9222 C   0  0  0  0  0  0  0  0  0  0  0  0
    3.9483   -8.0543  -13.3331 C   0  0  0  0  0  0  0  0  0  0  0  0
    4.0944   -8.1339  -11.9453 C   0  0  0  0  0  0  0  0  0  0  0  0
    2.9820   -8.2143  -11.0988 C   0  0  0  0  0  0  0  0  0  0  0  0
    1.7283   -8.2089  -11.7136 C   0  0  0  0  0  0  0  0  0  0  0  0
    0.4514   -8.2787  -11.2193 N   0  0  0  0  0  0  0  0  0  0  0  0
  1  2  1  0
  2  3  1  0
  3  4  2  0
  4  5  1  0
  5  6  2  0
  6  7  1  0
  7  8  2  0
  8  9  1  0
  9 10  1  0
 10 11  1  0
 11 12  2  0
 11 13  1  0
 13 14  1  0
 14 15  1  0
 15 16  1  0
 16 17  1  0
 17 18  1  0
 18 19  1  0
 19 20  1  0
 20 21  1  0
 21 22  2  0
 22 23  1  0
 23 24  2  0
 24 25  1  0
 25 26  2  0
 26 27  1  0
 27 28  2  0
 28 29  1  0
  8  3  1  0
 15  9  1  0
 29 21  1  0
 28 23  1  0
M  END
$$$$
