
     RDKit          3D

 26 28  0  0  0  0  0  0  0  0999 V2000
  104.4680   34.6728  -24.5510 C   0  0  0  0  0  0  0  0  0  0  0  0
  103.4057   34.0236  -25.3090 N   0  0  0  0  0  0  0  0  0  0  0  0
  102.2779   34.9175  -25.5902 C   0  0  0  0  0  0  0  0  0  0  0  0
  101.4414   35.2922  -24.3471 C   0  0  0  0  0  0  0  0  0  0  0  0
  100.1662   36.0490  -24.6999 C   0  0  0  0  0  0  0  0  0  0  0  0
  100.3683   37.3143  -25.2678 C   0  0  0  0  0  0  0  0  0  0  0  0
   99.3010   38.0423  -25.7419 C   0  0  0  0  0  0  0  0  0  0  0  0
   98.0027   37.5438  -25.6084 C   0  0  0  0  0  0  0  0  0  0  0  0
   97.0519   38.3338  -26.2224 O   0  0  0  0  0  0  0  0  0  0  0  0
   96.8967   37.9437  -27.5872 C   0  0  0  0  0  0  0  0  0  0  0  0
   97.6762   36.3505  -24.8841 C   0  0  0  0  0  0  0  0  0  0  0  0
   96.3051   36.0047  -24.6429 N   0  0  0  0  0  0  0  0  0  0  0  0
   95.3678   37.1630  -24.5656 C   0  0  0  0  0  0  0  0  0  0  0  0
   94.0675   36.8767  -23.8057 C   0  0  0  0  0  0  0  0  0  0  0  0
   93.4651   35.5660  -24.2703 C   0  0  0  0  0  0  0  0  0  0  0  0
   94.4613   34.4271  -24.0968 C   0  0  0  0  0  0  0  0  0  0  0  0
   95.8883   34.8886  -23.7717 C   0  0  0  0  0  0  0  0  0  0  0  0
   98.8278   35.5516  -24.4994 C   0  0  0  0  0  0  0  0  0  0  0  0
   98.6531   34.2569  -23.9622 N   0  0  0  0  0  0  0  0  0  0  0  0
   98.8488   34.1587  -22.5070 C   0  0  0  0  0  0  0  0  0  0  0  0
   98.3604   32.8182  -21.9731 C   0  0  0  0  0  0  0  0  0  0  0  0
   97.9716   32.6902  -20.8101 O   0  0  0  0  0  0  0  0  0  0  0  0
   98.4112   31.6338  -22.9095 C   0  0  0  0  0  0  0  0  0  0  0  0
   99.3962   31.8970  -24.0375 C   0  0  0  0  0  0  0  0  0  0  0  0
   99.0062   33.1441  -24.8306 C   0  0  0  0  0  0  0  0  0  0  0  0
   97.8666   32.8475  -25.6153 O   0  0  0  0  0  0  0  0  0  0  0  0
  1  2  1  0
  2  3  1  0
  3  4  1  0
  4  5  1  0
  5  6  2  0
  6  7  1  0
  7  8  2  0
  8  9  1  0
  9 10  1  0
  8 11  1  0
 11 12  1  0
 12 13  1  0
 13 14  1  0
 14 15  1  0
 15 16  1  0
 16 17  1  0
 11 18  2  0
 18 19  1  0
 19 20  1  0
 20 21  1  0
 21 22  2  0
 21 23  1  0
 23 24  1  0
 24 25  1  0
 25 26  1  0
 18  5  1  0
 25 19  1  0
 17 12  1  0
M  END
$$$$
