
     RDKit          3D

 16 17  0  0  0  0  0  0  0  0999 V2000
   40.2833  -24.9962  -23.2558 C   0  0  0  0  0  0  0  0  0  0  0  0
   38.8756  -25.1938  -23.2364 O   0  0  0  0  0  0  0  0  0  0  0  0
   38.1453  -24.3492  -22.4467 C   0  0  0  0  0  0  0  0  0  0  0  0
   38.6484  -23.3240  -21.6594 C   0  0  0  0  0  0  0  0  0  0  0  0
   37.7742  -22.5349  -20.9067 C   0  0  0  0  0  0  0  0  0  0  0  0
   36.3759  -22.7355  -20.9279 C   0  0  0  0  0  0  0  0  0  0  0  0
   35.5028  -21.8312  -20.0867 C   0  0  0  0  0  0  0  0  0  0  0  0
   35.9968  -20.4528  -19.9980 N   0  0  0  0  0  0  0  0  0  0  0  0
   35.8652  -23.8061  -21.6909 C   0  0  0  0  0  0  0  0  0  0  0  0
   34.5217  -24.1914  -21.7747 N   0  0  0  0  0  0  0  0  0  0  0  0
   33.8513  -24.5719  -20.5306 C   0  0  0  0  0  0  0  0  0  0  0  0
   32.6114  -25.4009  -20.8690 C   0  0  0  0  0  0  0  0  0  0  0  0
   31.6995  -24.6554  -21.8434 C   0  0  0  0  0  0  0  0  0  0  0  0
   32.4690  -24.2309  -23.0940 C   0  0  0  0  0  0  0  0  0  0  0  0
   33.7214  -23.4289  -22.7365 C   0  0  0  0  0  0  0  0  0  0  0  0
   36.7681  -24.5791  -22.4517 C   0  0  0  0  0  0  0  0  0  0  0  0
  1  2  1  0
  2  3  1  0
  3  4  2  0
  4  5  1  0
  5  6  2  0
  6  7  1  0
  7  8  1  0
  6  9  1  0
  9 10  1  0
 10 11  1  0
 11 12  1  0
 12 13  1  0
 13 14  1  0
 14 15  1  0
  9 16  2  0
 16  3  1  0
 15 10  1  0
M  END
$$$$
