
     RDKit          3D

 30 32  0  0  0  0  0  0  0  0999 V2000
   22.5525   -9.7389  -30.4411 N   0  0  0  0  0  0  0  0  0  0  0  0
   21.3709  -10.2073  -31.1657 C   0  0  0  0  0  0  0  0  0  0  0  0
   20.2466   -9.1854  -31.0594 C   0  0  0  0  0  0  0  0  0  0  0  0
   18.9943   -9.6484  -31.7824 C   0  0  0  0  0  0  0  0  0  0  0  0
   18.9978  -10.6388  -32.5135 O   0  0  0  0  0  0  0  0  0  0  0  0
   17.7725   -8.7598  -31.6106 C   0  0  0  0  0  0  0  0  0  0  0  0
   16.4582   -9.4901  -31.7262 C   0  0  0  0  0  0  0  0  0  0  0  0
   15.8516  -10.0440  -30.5930 C   0  0  0  0  0  0  0  0  0  0  0  0
   14.6329  -10.7172  -30.7049 C   0  0  0  0  0  0  0  0  0  0  0  0
   14.0013  -10.8478  -31.9429 C   0  0  0  0  0  0  0  0  0  0  0  0
   12.8122  -11.5193  -31.9074 O   0  0  0  0  0  0  0  0  0  0  0  0
   12.0206  -11.4920  -33.0900 C   0  0  0  0  0  0  0  0  0  0  0  0
   10.6482  -12.0922  -32.8338 C   0  0  0  0  0  0  0  0  0  0  0  0
   10.0043  -12.7032  -33.6779 O   0  0  0  0  0  0  0  0  0  0  0  0
   10.2234  -11.8177  -31.5736 O   0  0  0  0  0  0  0  0  0  0  0  0
    8.9060  -12.2734  -31.2466 C   0  0  0  0  0  0  0  0  0  0  0  0
    8.9134  -13.7772  -30.9038 C   0  0  0  0  0  0  0  0  0  0  0  0
    9.1809  -14.0686  -29.4207 C   0  0  0  0  0  0  0  0  0  0  0  0
   10.0041  -12.9684  -28.7665 C   0  0  0  0  0  0  0  0  0  0  0  0
    9.3338  -11.5954  -28.8939 C   0  0  0  0  0  0  0  0  0  0  0  0
    8.4335  -11.5435  -30.0561 N   0  0  0  0  0  0  0  0  0  0  0  0
    7.9343  -10.2658  -30.3919 C   0  0  0  0  0  0  0  0  0  0  0  0
    8.7086   -9.1050  -30.4765 C   0  0  0  0  0  0  0  0  0  0  0  0
    8.2400   -7.8841  -30.8365 N   0  0  0  0  0  0  0  0  0  0  0  0
    6.9308   -7.8147  -31.1541 C   0  0  0  0  0  0  0  0  0  0  0  0
    6.0664   -8.8974  -31.1188 C   0  0  0  0  0  0  0  0  0  0  0  0
    6.5627  -10.1279  -30.6955 C   0  0  0  0  0  0  0  0  0  0  0  0
    5.7405  -11.2774  -30.7509 N   0  0  0  0  0  0  0  0  0  0  0  0
   14.6116  -10.3188  -33.0791 C   0  0  0  0  0  0  0  0  0  0  0  0
   15.8336   -9.6451  -32.9708 C   0  0  0  0  0  0  0  0  0  0  0  0
  1  2  1  0
  2  3  1  0
  3  4  1  0
  4  5  2  0
  4  6  1  0
  6  7  1  0
  7  8  2  0
  8  9  1  0
  9 10  2  0
 10 11  1  0
 11 12  1  0
 12 13  1  0
 13 14  2  0
 13 15  1  0
 15 16  1  0
 16 17  1  0
 17 18  1  0
 18 19  1  0
 19 20  1  0
 20 21  1  0
 21 22  1  0
 22 23  2  0
 23 24  1  0
 24 25  2  0
 25 26  1  0
 26 27  2  0
 27 28  1  0
 10 29  1  0
 29 30  2  0
 30  7  1  0
 21 16  1  0
 27 22  1  0
M  END
$$$$
