
     RDKit          3D

 28 31  0  0  0  0  0  0  0  0999 V2000
   10.1501   16.9109  -26.0092 N   0  0  0  0  0  0  0  0  0  0  0  0
   10.6514   18.1960  -26.4871 C   0  0  0  0  0  0  0  0  0  0  0  0
    9.8185   18.7403  -27.6246 C   0  0  0  0  0  0  0  0  0  0  0  0
    8.6362   19.4285  -27.2892 C   0  0  0  0  0  0  0  0  0  0  0  0
    7.8777   20.0071  -28.2901 C   0  0  0  0  0  0  0  0  0  0  0  0
    8.2076   19.9544  -29.5904 N   0  0  0  0  0  0  0  0  0  0  0  0
    9.3414   19.2750  -29.8940 C   0  0  0  0  0  0  0  0  0  0  0  0
   10.1914   18.6296  -28.9824 C   0  0  0  0  0  0  0  0  0  0  0  0
   11.3284   17.9240  -29.3871 N   0  0  0  0  0  0  0  0  0  0  0  0
   11.3263   16.4739  -29.0648 C   0  0  0  0  0  0  0  0  0  0  0  0
   11.5568   15.6351  -30.3098 C   0  0  0  0  0  0  0  0  0  0  0  0
   12.0511   14.5089  -30.2710 O   0  0  0  0  0  0  0  0  0  0  0  0
   11.0722   16.2408  -31.5980 C   0  0  0  0  0  0  0  0  0  0  0  0
   11.7323   17.5936  -31.8313 C   0  0  0  0  0  0  0  0  0  0  0  0
   12.1122   18.3714  -30.5531 C   0  0  0  0  0  0  0  0  0  0  0  0
   13.6237   18.2410  -30.2498 C   0  0  0  0  0  0  0  0  0  0  0  0
   14.0583   19.1601  -29.1020 C   0  0  0  0  0  0  0  0  0  0  0  0
   15.5109   19.1352  -28.8847 N   0  0  0  0  0  0  0  0  0  0  0  0
   15.9327   17.9197  -28.1714 C   0  0  0  0  0  0  0  0  0  0  0  0
   17.3971   17.9762  -27.8828 C   0  0  0  0  0  0  0  0  0  0  0  0
   17.9890   17.8377  -26.7130 N   0  0  0  0  0  0  0  0  0  0  0  0
   19.3338   17.9696  -26.9640 C   0  0  0  0  0  0  0  0  0  0  0  0
   20.4216   17.9068  -26.0813 C   0  0  0  0  0  0  0  0  0  0  0  0
   21.7139   18.0807  -26.5937 C   0  0  0  0  0  0  0  0  0  0  0  0
   21.9182   18.3131  -27.9564 C   0  0  0  0  0  0  0  0  0  0  0  0
   20.8447   18.3793  -28.8528 C   0  0  0  0  0  0  0  0  0  0  0  0
   19.5687   18.2001  -28.3149 C   0  0  0  0  0  0  0  0  0  0  0  0
   18.3196   18.2012  -28.8763 N   0  0  0  0  0  0  0  0  0  0  0  0
  1  2  1  0
  2  3  1  0
  3  4  2  0
  4  5  1  0
  5  6  2  0
  6  7  1  0
  7  8  2  0
  8  9  1  0
  9 10  1  0
 10 11  1  0
 11 12  2  0
 11 13  1  0
 13 14  1  0
 14 15  1  0
 15 16  1  0
 16 17  1  0
 17 18  1  0
 18 19  1  0
 19 20  1  0
 20 21  2  0
 21 22  1  0
 22 23  2  0
 23 24  1  0
 24 25  2  0
 25 26  1  0
 26 27  2  0
 27 28  1  0
  8  3  1  0
 15  9  1  0
 28 20  1  0
 27 22  1  0
M  END
$$$$
