
     RDKit          3D

 28 31  0  0  0  0  0  0  0  0999 V2000
  -14.0192   22.4409    1.4168 N   0  0  0  0  0  0  0  0  0  0  0  0
  -13.2262   22.2702    0.2429 C   0  0  0  0  0  0  0  0  0  0  0  0
  -12.8153   23.3972   -0.4633 C   0  0  0  0  0  0  0  0  0  0  0  0
  -11.9570   23.2189   -1.5326 C   0  0  0  0  0  0  0  0  0  0  0  0
  -11.4517   22.0196   -1.9020 N   0  0  0  0  0  0  0  0  0  0  0  0
  -11.8228   20.9481   -1.1542 C   0  0  0  0  0  0  0  0  0  0  0  0
  -12.6918   20.9962   -0.0616 C   0  0  0  0  0  0  0  0  0  0  0  0
  -13.0563   19.8922    0.7384 N   0  0  0  0  0  0  0  0  0  0  0  0
  -13.2474   18.6292   -0.0123 C   0  0  0  0  0  0  0  0  0  0  0  0
  -13.7290   17.5382    0.9315 C   0  0  0  0  0  0  0  0  0  0  0  0
  -13.7739   16.3540    0.5974 O   0  0  0  0  0  0  0  0  0  0  0  0
  -14.2040   17.9985    2.2864 C   0  0  0  0  0  0  0  0  0  0  0  0
  -13.1749   18.9116    2.9576 C   0  0  0  0  0  0  0  0  0  0  0  0
  -12.2652   19.7115    1.9802 C   0  0  0  0  0  0  0  0  0  0  0  0
  -11.7168   20.8820    2.6831 N   0  0  0  0  0  0  0  0  0  0  0  0
  -10.8451   20.5737    3.8305 C   0  0  0  0  0  0  0  0  0  0  0  0
   -9.5070   19.8925    3.4612 C   0  0  0  0  0  0  0  0  0  0  0  0
   -8.8782   20.4473    2.2572 N   0  0  0  0  0  0  0  0  0  0  0  0
   -8.3157   21.7816    2.4944 C   0  0  0  0  0  0  0  0  0  0  0  0
   -7.5888   22.1987    1.2571 C   0  0  0  0  0  0  0  0  0  0  0  0
   -8.1523   22.4156    0.0120 C   0  0  0  0  0  0  0  0  0  0  0  0
   -7.1634   22.7796   -0.8588 N   0  0  0  0  0  0  0  0  0  0  0  0
   -5.9517   22.8264   -0.2066 C   0  0  0  0  0  0  0  0  0  0  0  0
   -4.6791   23.1563   -0.6918 C   0  0  0  0  0  0  0  0  0  0  0  0
   -3.6076   23.1129    0.2067 C   0  0  0  0  0  0  0  0  0  0  0  0
   -3.8037   22.7504    1.5365 C   0  0  0  0  0  0  0  0  0  0  0  0
   -5.0827   22.4194    2.0044 C   0  0  0  0  0  0  0  0  0  0  0  0
   -6.1837   22.4606    1.1216 C   0  0  0  0  0  0  0  0  0  0  0  0
  1  2  1  0
  2  3  2  0
  3  4  1  0
  4  5  2  0
  5  6  1  0
  6  7  2  0
  7  8  1  0
  8  9  1  0
  9 10  1  0
 10 11  2  0
 10 12  1  0
 12 13  1  0
 13 14  1  0
 14 15  1  0
 15 16  1  0
 16 17  1  0
 17 18  1  0
 18 19  1  0
 19 20  1  0
 20 21  2  0
 21 22  1  0
 22 23  1  0
 23 24  2  0
 24 25  1  0
 25 26  2  0
 26 27  1  0
 27 28  2  0
  7  2  1  0
 14  8  1  0
 28 20  1  0
 28 23  1  0
M  END
$$$$
