
     RDKit          3D

 19 20  0  0  0  0  0  0  0  0999 V2000
  -16.1552   31.2809  -24.3155 N   0  0  0  0  0  0  0  0  0  0  0  0
  -15.6482   30.7632  -25.5809 C   0  0  0  0  0  0  0  0  0  0  0  0
  -15.6181   31.8422  -26.6531 C   0  0  0  0  0  0  0  0  0  0  0  0
  -17.0102   32.2226  -27.1134 C   0  0  0  0  0  0  0  0  0  0  0  0
  -17.7670   31.4024  -27.6371 O   0  0  0  0  0  0  0  0  0  0  0  0
  -17.4389   33.6496  -26.9235 C   0  0  0  0  0  0  0  0  0  0  0  0
  -17.8746   33.9567  -25.5178 C   0  0  0  0  0  0  0  0  0  0  0  0
  -17.0811   34.4328  -24.7028 O   0  0  0  0  0  0  0  0  0  0  0  0
  -19.3048   33.6408  -25.1411 C   0  0  0  0  0  0  0  0  0  0  0  0
  -19.3968   32.3350  -24.3660 C   0  0  0  0  0  0  0  0  0  0  0  0
  -20.8171   31.9485  -24.1013 C   0  0  0  0  0  0  0  0  0  0  0  0
  -21.5637   32.2684  -22.9846 C   0  0  0  0  0  0  0  0  0  0  0  0
  -22.8140   31.7322  -23.1362 N   0  0  0  0  0  0  0  0  0  0  0  0
  -22.9057   31.0671  -24.3364 C   0  0  0  0  0  0  0  0  0  0  0  0
  -23.9827   30.3782  -24.9073 C   0  0  0  0  0  0  0  0  0  0  0  0
  -23.7835   29.7878  -26.1589 C   0  0  0  0  0  0  0  0  0  0  0  0
  -22.5563   29.8839  -26.8106 C   0  0  0  0  0  0  0  0  0  0  0  0
  -21.4901   30.5767  -26.2256 C   0  0  0  0  0  0  0  0  0  0  0  0
  -21.6652   31.1817  -24.9638 C   0  0  0  0  0  0  0  0  0  0  0  0
  1  2  1  0
  2  3  1  0
  3  4  1  0
  4  5  2  0
  4  6  1  0
  6  7  1  0
  7  8  2  0
  7  9  1  0
  9 10  1  0
 10 11  1  0
 11 12  2  0
 12 13  1  0
 13 14  1  0
 14 15  2  0
 15 16  1  0
 16 17  2  0
 17 18  1  0
 18 19  2  0
 19 11  1  0
 19 14  1  0
M  END
$$$$
