
     RDKit          3D

 22 23  0  0  0  0  0  0  0  0999 V2000
   10.9408   26.3462   26.5444 N   0  0  0  0  0  0  0  0  0  0  0  0
   10.0108   26.4965   25.4297 C   0  0  0  0  0  0  0  0  0  0  0  0
    8.9226   27.5090   25.7846 C   0  0  0  0  0  0  0  0  0  0  0  0
    7.9682   27.8083   24.6230 C   0  0  0  0  0  0  0  0  0  0  0  0
    7.1037   26.6079   24.2228 C   0  0  0  0  0  0  0  0  0  0  0  0
    6.1341   26.9185   23.0746 C   0  0  0  0  0  0  0  0  0  0  0  0
    5.0338   27.8957   23.4359 C   0  0  0  0  0  0  0  0  0  0  0  0
    5.1429   29.2267   22.9895 C   0  0  0  0  0  0  0  0  0  0  0  0
    4.1722   30.1716   23.3145 C   0  0  0  0  0  0  0  0  0  0  0  0
    3.0862   29.7886   24.0980 C   0  0  0  0  0  0  0  0  0  0  0  0
    1.8297   30.9652   24.4878 S   0  0  0  0  0  0  0  0  0  0  0  0
    2.3882   31.6054   25.9358 N   0  0  0  0  0  0  0  0  0  0  0  0
    1.8750   32.0481   23.5330 O   0  0  0  0  0  0  0  0  0  0  0  0
    0.6047   30.2703   24.8095 O   0  0  0  0  0  0  0  0  0  0  0  0
    2.9520   28.4694   24.5381 C   0  0  0  0  0  0  0  0  0  0  0  0
    3.9234   27.5077   24.2195 C   0  0  0  0  0  0  0  0  0  0  0  0
    3.7893   26.1690   24.6342 N   0  0  0  0  0  0  0  0  0  0  0  0
    3.6352   25.9654   26.0866 C   0  0  0  0  0  0  0  0  0  0  0  0
    2.2801   25.3583   26.4382 C   0  0  0  0  0  0  0  0  0  0  0  0
    2.0430   24.0364   25.7071 C   0  0  0  0  0  0  0  0  0  0  0  0
    2.6820   24.0053   24.3177 C   0  0  0  0  0  0  0  0  0  0  0  0
    2.8766   25.4113   23.7592 C   0  0  0  0  0  0  0  0  0  0  0  0
  1  2  1  0
  2  3  1  0
  3  4  1  0
  4  5  1  0
  5  6  1  0
  6  7  1  0
  7  8  2  0
  8  9  1  0
  9 10  2  0
 10 11  1  0
 11 12  1  0
 11 13  2  0
 11 14  2  0
 10 15  1  0
 15 16  2  0
 16 17  1  0
 17 18  1  0
 18 19  1  0
 19 20  1  0
 20 21  1  0
 21 22  1  0
 16  7  1  0
 22 17  1  0
M  END
$$$$
