
     RDKit          3D

 16 17  0  0  0  0  0  0  0  0999 V2000
  -19.9189    3.1758    5.6148 N   0  0  0  0  0  0  0  0  0  0  0  0
  -20.8231    3.0438    6.7570 C   0  0  0  0  0  0  0  0  0  0  0  0
  -22.2359    2.7254    6.2841 C   0  0  0  0  0  0  0  0  0  0  0  0
  -23.1978    2.5711    7.4482 C   0  0  0  0  0  0  0  0  0  0  0  0
  -22.8722    2.8318    8.6058 O   0  0  0  0  0  0  0  0  0  0  0  0
  -24.5939    2.1016    7.0864 C   0  0  0  0  0  0  0  0  0  0  0  0
  -25.4873    1.9558    8.3144 C   0  0  0  0  0  0  0  0  0  0  0  0
  -26.8622    1.4926    7.9481 C   0  0  0  0  0  0  0  0  0  0  0  0
  -27.3112    0.1863    7.9436 C   0  0  0  0  0  0  0  0  0  0  0  0
  -28.6209    0.1826    7.5463 N   0  0  0  0  0  0  0  0  0  0  0  0
  -29.0426    1.4647    7.2833 C   0  0  0  0  0  0  0  0  0  0  0  0
  -30.2893    1.9335    6.8517 C   0  0  0  0  0  0  0  0  0  0  0  0
  -30.4353    3.3115    6.6680 C   0  0  0  0  0  0  0  0  0  0  0  0
  -29.3760    4.1831    6.9082 C   0  0  0  0  0  0  0  0  0  0  0  0
  -28.1362    3.6971    7.3394 C   0  0  0  0  0  0  0  0  0  0  0  0
  -27.9615    2.3109    7.5312 C   0  0  0  0  0  0  0  0  0  0  0  0
  1  2  1  0
  2  3  1  0
  3  4  1  0
  4  5  2  0
  4  6  1  0
  6  7  1  0
  7  8  1  0
  8  9  2  0
  9 10  1  0
 10 11  1  0
 11 12  2  0
 12 13  1  0
 13 14  2  0
 14 15  1  0
 15 16  2  0
 16  8  1  0
 16 11  1  0
M  END
$$$$
