
     RDKit          3D

 16 17  0  0  0  0  0  0  0  0999 V2000
  -10.6381  -17.4181   -0.8385 C   0  0  0  0  0  0  0  0  0  0  0  0
  -11.4985  -16.9835   -1.9325 N   0  0  0  0  0  0  0  0  0  0  0  0
  -12.7222  -17.8066   -2.0470 C   0  0  0  0  0  0  0  0  0  0  0  0
  -12.4887  -19.2933   -2.4208 C   0  0  0  0  0  0  0  0  0  0  0  0
  -13.7521  -19.9187   -3.0560 C   0  0  0  0  0  0  0  0  0  0  0  0
  -14.9972  -19.8199   -2.2222 C   0  0  0  0  0  0  0  0  0  0  0  0
  -15.2835  -20.5599   -1.0912 C   0  0  0  0  0  0  0  0  0  0  0  0
  -16.5060  -20.1725   -0.6173 N   0  0  0  0  0  0  0  0  0  0  0  0
  -17.0410  -19.1958   -1.4233 C   0  0  0  0  0  0  0  0  0  0  0  0
  -18.2605  -18.5148   -1.3249 C   0  0  0  0  0  0  0  0  0  0  0  0
  -18.5485  -17.5562   -2.3002 C   0  0  0  0  0  0  0  0  0  0  0  0
  -17.6511  -17.2915   -3.3312 C   0  0  0  0  0  0  0  0  0  0  0  0
  -16.4360  -17.9816   -3.4140 C   0  0  0  0  0  0  0  0  0  0  0  0
  -16.1190  -18.9544   -2.4426 C   0  0  0  0  0  0  0  0  0  0  0  0
  -12.0817  -20.0181   -1.2433 O   0  0  0  0  0  0  0  0  0  0  0  0
  -11.3590  -21.2058   -1.5340 C   0  0  0  0  0  0  0  0  0  0  0  0
  1  2  1  0
  2  3  1  0
  3  4  1  0
  4  5  1  0
  5  6  1  0
  6  7  2  0
  7  8  1  0
  8  9  1  0
  9 10  2  0
 10 11  1  0
 11 12  2  0
 12 13  1  0
 13 14  2  0
  4 15  1  0
 15 16  1  0
 14  6  1  0
 14  9  1  0
M  END
$$$$
