
     RDKit          3D

 22 24  0  0  0  0  0  0  0  0999 V2000
  -22.5891   -2.1661    2.4168 N   0  0  0  0  0  0  0  0  0  0  0  0
  -22.6198   -2.7818    1.0819 C   0  0  0  0  0  0  0  0  0  0  0  0
  -21.2264   -2.7761    0.4702 C   0  0  0  0  0  0  0  0  0  0  0  0
  -20.4514   -1.8263    0.5848 O   0  0  0  0  0  0  0  0  0  0  0  0
  -20.8447   -3.9096   -0.3936 C   0  0  0  0  0  0  0  0  0  0  0  0
  -20.7472   -3.6228   -1.7597 C   0  0  0  0  0  0  0  0  0  0  0  0
  -20.3594   -4.6380   -2.6091 C   0  0  0  0  0  0  0  0  0  0  0  0
  -20.0661   -5.8822   -2.1875 N   0  0  0  0  0  0  0  0  0  0  0  0
  -20.1435   -6.1124   -0.8528 C   0  0  0  0  0  0  0  0  0  0  0  0
  -20.5220   -5.1788    0.1174 C   0  0  0  0  0  0  0  0  0  0  0  0
  -20.5546   -5.4749    1.4929 N   0  0  0  0  0  0  0  0  0  0  0  0
  -21.7621   -6.1977    1.9229 C   0  0  0  0  0  0  0  0  0  0  0  0
  -21.6536   -7.7062    1.7286 C   0  0  0  0  0  0  0  0  0  0  0  0
  -20.2963   -8.2614    2.1357 C   0  0  0  0  0  0  0  0  0  0  0  0
  -19.4723   -7.2368    2.9032 C   0  0  0  0  0  0  0  0  0  0  0  0
  -19.2553   -5.9139    2.1050 C   0  0  0  0  0  0  0  0  0  0  0  0
  -18.5454   -4.9941    3.0267 N   0  0  0  0  0  0  0  0  0  0  0  0
  -18.6958   -3.5853    2.6270 C   0  0  0  0  0  0  0  0  0  0  0  0
  -17.7144   -2.6249    3.3183 C   0  0  0  0  0  0  0  0  0  0  0  0
  -17.1984   -3.1959    4.6291 C   0  0  0  0  0  0  0  0  0  0  0  0
  -16.5475   -4.5600    4.3995 C   0  0  0  0  0  0  0  0  0  0  0  0
  -17.1199   -5.3046    3.1843 C   0  0  0  0  0  0  0  0  0  0  0  0
  1  2  1  0
  2  3  1  0
  3  4  2  0
  3  5  1  0
  5  6  2  0
  6  7  1  0
  7  8  2  0
  8  9  1  0
  9 10  2  0
 10 11  1  0
 11 12  1  0
 12 13  1  0
 13 14  1  0
 14 15  1  0
 15 16  1  0
 16 17  1  0
 17 18  1  0
 18 19  1  0
 19 20  1  0
 20 21  1  0
 21 22  1  0
 10  5  1  0
 16 11  1  0
 22 17  1  0
M  END
$$$$
