
     RDKit          3D

 19 20  0  0  0  0  0  0  0  0999 V2000
  -12.2752   -2.2583   16.0614 N   0  0  0  0  0  0  0  0  0  0  0  0
  -11.7681   -2.7760   14.7959 C   0  0  0  0  0  0  0  0  0  0  0  0
  -11.7381   -1.6970   13.7237 C   0  0  0  0  0  0  0  0  0  0  0  0
  -13.1302   -1.3166   13.2635 C   0  0  0  0  0  0  0  0  0  0  0  0
  -13.8869   -2.1368   12.7398 O   0  0  0  0  0  0  0  0  0  0  0  0
  -13.5588    0.1104   13.4533 C   0  0  0  0  0  0  0  0  0  0  0  0
  -13.9945    0.4175   14.8591 C   0  0  0  0  0  0  0  0  0  0  0  0
  -13.2011    0.8936   15.6741 O   0  0  0  0  0  0  0  0  0  0  0  0
  -15.4247    0.1016   15.2358 C   0  0  0  0  0  0  0  0  0  0  0  0
  -15.5168   -1.2042   16.0109 C   0  0  0  0  0  0  0  0  0  0  0  0
  -16.9371   -1.5907   16.2756 C   0  0  0  0  0  0  0  0  0  0  0  0
  -17.6837   -1.2708   17.3923 C   0  0  0  0  0  0  0  0  0  0  0  0
  -18.9340   -1.8070   17.2407 N   0  0  0  0  0  0  0  0  0  0  0  0
  -19.0257   -2.4721   16.0405 C   0  0  0  0  0  0  0  0  0  0  0  0
  -20.1026   -3.1611   15.4696 C   0  0  0  0  0  0  0  0  0  0  0  0
  -19.9034   -3.7514   14.2179 C   0  0  0  0  0  0  0  0  0  0  0  0
  -18.6762   -3.6553   13.5663 C   0  0  0  0  0  0  0  0  0  0  0  0
  -17.6100   -2.9625   14.1513 C   0  0  0  0  0  0  0  0  0  0  0  0
  -17.7852   -2.3575   15.4131 C   0  0  0  0  0  0  0  0  0  0  0  0
  1  2  1  0
  2  3  1  0
  3  4  1  0
  4  5  2  0
  4  6  1  0
  6  7  1  0
  7  8  2  0
  7  9  1  0
  9 10  1  0
 10 11  1  0
 11 12  2  0
 12 13  1  0
 13 14  1  0
 14 15  2  0
 15 16  1  0
 16 17  2  0
 17 18  1  0
 18 19  2  0
 19 11  1  0
 19 14  1  0
M  END
$$$$
