
     RDKit          3D

 16 17  0  0  0  0  0  0  0  0999 V2000
   -5.1862   23.0655   27.6617 N   0  0  0  0  0  0  0  0  0  0  0  0
   -6.0904   22.9335   28.8040 C   0  0  0  0  0  0  0  0  0  0  0  0
   -7.5032   22.6151   28.3310 C   0  0  0  0  0  0  0  0  0  0  0  0
   -8.4651   22.4608   29.4952 C   0  0  0  0  0  0  0  0  0  0  0  0
   -8.1395   22.7215   30.6527 O   0  0  0  0  0  0  0  0  0  0  0  0
   -9.8612   21.9913   29.1334 C   0  0  0  0  0  0  0  0  0  0  0  0
  -10.7547   21.8455   30.3613 C   0  0  0  0  0  0  0  0  0  0  0  0
  -12.1295   21.3823   29.9951 C   0  0  0  0  0  0  0  0  0  0  0  0
  -12.5785   20.0760   29.9906 C   0  0  0  0  0  0  0  0  0  0  0  0
  -13.8882   20.0723   29.5933 N   0  0  0  0  0  0  0  0  0  0  0  0
  -14.3099   21.3544   29.3303 C   0  0  0  0  0  0  0  0  0  0  0  0
  -15.5566   21.8232   28.8986 C   0  0  0  0  0  0  0  0  0  0  0  0
  -15.7026   23.2012   28.7150 C   0  0  0  0  0  0  0  0  0  0  0  0
  -14.6433   24.0728   28.9552 C   0  0  0  0  0  0  0  0  0  0  0  0
  -13.4035   23.5867   29.3864 C   0  0  0  0  0  0  0  0  0  0  0  0
  -13.2288   22.2005   29.5781 C   0  0  0  0  0  0  0  0  0  0  0  0
  1  2  1  0
  2  3  1  0
  3  4  1  0
  4  5  2  0
  4  6  1  0
  6  7  1  0
  7  8  1  0
  8  9  2  0
  9 10  1  0
 10 11  1  0
 11 12  2  0
 12 13  1  0
 13 14  2  0
 14 15  1  0
 15 16  2  0
 16  8  1  0
 16 11  1  0
M  END
$$$$
