
     RDKit          3D

 29 32  0  0  0  0  0  0  0  0999 V2000
    3.7151    6.0149   -6.7583 N   0  0  0  0  0  0  0  0  0  0  0  0
    2.8180    5.2002   -5.9466 C   0  0  0  0  0  0  0  0  0  0  0  0
    3.4645    4.7669   -4.6308 C   0  0  0  0  0  0  0  0  0  0  0  0
    4.6961    3.8804   -4.8369 C   0  0  0  0  0  0  0  0  0  0  0  0
    5.2723    3.3935   -3.5241 C   0  0  0  0  0  0  0  0  0  0  0  0
    4.9549    2.1018   -3.0794 C   0  0  0  0  0  0  0  0  0  0  0  0
    5.4760    1.6561   -1.8754 C   0  0  0  0  0  0  0  0  0  0  0  0
    6.2833    2.3936   -1.0903 N   0  0  0  0  0  0  0  0  0  0  0  0
    6.5716    3.6413   -1.5349 C   0  0  0  0  0  0  0  0  0  0  0  0
    6.0963    4.2084   -2.7246 C   0  0  0  0  0  0  0  0  0  0  0  0
    6.4376    5.5018   -3.1537 N   0  0  0  0  0  0  0  0  0  0  0  0
    6.1844    6.5766   -2.1820 C   0  0  0  0  0  0  0  0  0  0  0  0
    6.7807    7.9093   -2.6537 C   0  0  0  0  0  0  0  0  0  0  0  0
    6.9283    7.9670   -4.1683 C   0  0  0  0  0  0  0  0  0  0  0  0
    7.7841    6.8109   -4.7043 C   0  0  0  0  0  0  0  0  0  0  0  0
    7.7430    5.5566   -3.8129 C   0  0  0  0  0  0  0  0  0  0  0  0
    8.7707    5.6282   -2.8233 O   0  0  0  0  0  0  0  0  0  0  0  0
    9.9552    4.9371   -3.2246 C   0  0  0  0  0  0  0  0  0  0  0  0
   11.0364    5.1325   -2.1576 C   0  0  0  0  0  0  0  0  0  0  0  0
   12.2230    4.3275   -2.4055 N   0  0  0  0  0  0  0  0  0  0  0  0
   13.0243    4.6719   -3.4916 C   0  0  0  0  0  0  0  0  0  0  0  0
   13.0564    5.9473   -3.9627 N   0  0  0  0  0  0  0  0  0  0  0  0
   13.8668    6.2385   -5.0049 C   0  0  0  0  0  0  0  0  0  0  0  0
   14.6753    5.4090   -5.6951 N   0  0  0  0  0  0  0  0  0  0  0  0
   14.5985    4.1653   -5.2030 C   0  0  0  0  0  0  0  0  0  0  0  0
   15.2701    3.0636   -5.6464 N   0  0  0  0  0  0  0  0  0  0  0  0
   14.8862    2.0050   -4.8681 C   0  0  0  0  0  0  0  0  0  0  0  0
   14.0101    2.3604   -3.9516 N   0  0  0  0  0  0  0  0  0  0  0  0
   13.8291    3.7173   -4.1441 C   0  0  0  0  0  0  0  0  0  0  0  0
  1  2  1  0
  2  3  1  0
  3  4  1  0
  4  5  1  0
  5  6  2  0
  6  7  1  0
  7  8  2  0
  8  9  1  0
  9 10  2  0
 10 11  1  0
 11 12  1  0
 12 13  1  0
 13 14  1  0
 14 15  1  0
 15 16  1  0
 16 17  1  0
 17 18  1  0
 18 19  1  0
 19 20  1  0
 20 21  1  0
 21 22  2  0
 22 23  1  0
 23 24  2  0
 24 25  1  0
 25 26  1  0
 26 27  1  0
 27 28  2  0
 28 29  1  0
 10  5  1  0
 16 11  1  0
 29 21  1  0
 29 25  2  0
M  END
$$$$
