
     RDKit          3D

 23 25  0  0  0  0  0  0  0  0999 V2000
    0.7082   14.9381  -12.2464 N   0  0  0  0  0  0  0  0  0  0  0  0
    1.1315   14.2179  -11.1610 C   0  0  0  0  0  0  0  0  0  0  0  0
    1.6340   13.1071  -11.2973 O   0  0  0  0  0  0  0  0  0  0  0  0
    0.8991   14.7999   -9.8034 C   0  0  0  0  0  0  0  0  0  0  0  0
    0.7850   13.8579   -8.7569 C   0  0  0  0  0  0  0  0  0  0  0  0
    0.5527   14.2682   -7.4457 C   0  0  0  0  0  0  0  0  0  0  0  0
    0.4364   15.6231   -7.1761 C   0  0  0  0  0  0  0  0  0  0  0  0
    0.2246   16.0296   -5.9173 F   0  0  0  0  0  0  0  0  0  0  0  0
    0.5609   16.5748   -8.1879 C   0  0  0  0  0  0  0  0  0  0  0  0
    0.8013   16.1893   -9.5246 C   0  0  0  0  0  0  0  0  0  0  0  0
    0.9714   17.1722  -10.5407 N   0  0  0  0  0  0  0  0  0  0  0  0
   -0.2483   18.0292  -10.6285 C   0  0  0  0  0  0  0  0  0  0  0  0
   -0.1465   19.0175  -11.7773 C   0  0  0  0  0  0  0  0  0  0  0  0
   -1.1153   19.2867  -12.4889 O   0  0  0  0  0  0  0  0  0  0  0  0
    1.1529   19.7766  -11.8836 C   0  0  0  0  0  0  0  0  0  0  0  0
    2.3274   18.8202  -11.7354 C   0  0  0  0  0  0  0  0  0  0  0  0
    2.2388   17.9618  -10.4347 C   0  0  0  0  0  0  0  0  0  0  0  0
    3.5886   17.3983  -10.2295 N   0  0  0  0  0  0  0  0  0  0  0  0
    4.0098   16.3805  -11.1987 C   0  0  0  0  0  0  0  0  0  0  0  0
    5.5162   16.1070  -11.0778 C   0  0  0  0  0  0  0  0  0  0  0  0
    5.9182   15.7386   -9.6535 C   0  0  0  0  0  0  0  0  0  0  0  0
    5.3625   16.7516   -8.6558 C   0  0  0  0  0  0  0  0  0  0  0  0
    3.8593   16.9539   -8.8615 C   0  0  0  0  0  0  0  0  0  0  0  0
  1  2  1  0
  2  3  2  0
  2  4  1  0
  4  5  2  0
  5  6  1  0
  6  7  2  0
  7  8  1  0
  7  9  1  0
  9 10  2  0
 10 11  1  0
 11 12  1  0
 12 13  1  0
 13 14  2  0
 13 15  1  0
 15 16  1  0
 16 17  1  0
 17 18  1  0
 18 19  1  0
 19 20  1  0
 20 21  1  0
 21 22  1  0
 22 23  1  0
 10  4  1  0
 17 11  1  0
 23 18  1  0
M  END
$$$$
