
     RDKit          3D

 26 28  0  0  0  0  0  0  0  0999 V2000
    5.5996    6.3972    3.8260 N   0  0  0  0  0  0  0  0  0  0  0  0
    5.1847    7.6166    3.3629 C   0  0  0  0  0  0  0  0  0  0  0  0
    5.4228    8.6438    3.9834 O   0  0  0  0  0  0  0  0  0  0  0  0
    4.4434    7.6120    2.0694 C   0  0  0  0  0  0  0  0  0  0  0  0
    3.4834    6.6072    1.8543 C   0  0  0  0  0  0  0  0  0  0  0  0
    2.7498    6.5719    0.6674 C   0  0  0  0  0  0  0  0  0  0  0  0
    2.9667    7.5434   -0.3042 C   0  0  0  0  0  0  0  0  0  0  0  0
    2.0627    7.5052   -1.7672 Cl  0  0  0  0  0  0  0  0  0  0  0  0
    3.9092    8.5515   -0.1001 C   0  0  0  0  0  0  0  0  0  0  0  0
    4.6660    8.6011    1.0869 C   0  0  0  0  0  0  0  0  0  0  0  0
    5.6856    9.7031    1.2575 C   0  0  0  0  0  0  0  0  0  0  0  0
    7.0085    9.1387    1.4611 N   0  0  0  0  0  0  0  0  0  0  0  0
    7.9872    9.0325    0.4652 C   0  0  0  0  0  0  0  0  0  0  0  0
    7.6810    9.0719   -0.8970 C   0  0  0  0  0  0  0  0  0  0  0  0
    8.7042    8.9688   -1.8239 C   0  0  0  0  0  0  0  0  0  0  0  0
    9.9986    8.8144   -1.4958 N   0  0  0  0  0  0  0  0  0  0  0  0
   10.2773    8.7249   -0.1743 C   0  0  0  0  0  0  0  0  0  0  0  0
    9.3334    8.7767    0.8599 C   0  0  0  0  0  0  0  0  0  0  0  0
    9.6586    8.6042    2.2202 N   0  0  0  0  0  0  0  0  0  0  0  0
    8.9411    7.5048    2.9090 C   0  0  0  0  0  0  0  0  0  0  0  0
    9.8808    6.4217    3.4116 C   0  0  0  0  0  0  0  0  0  0  0  0
    9.5132    5.5990    4.2539 O   0  0  0  0  0  0  0  0  0  0  0  0
   11.2319    6.3189    2.7614 C   0  0  0  0  0  0  0  0  0  0  0  0
   11.9000    7.6540    2.5880 C   0  0  0  0  0  0  0  0  0  0  0  0
   13.1097    7.7386    2.3717 O   0  0  0  0  0  0  0  0  0  0  0  0
   11.0201    8.8868    2.6943 C   0  0  0  0  0  0  0  0  0  0  0  0
  1  2  1  0
  2  3  2  0
  2  4  1  0
  4  5  2  0
  5  6  1  0
  6  7  2  0
  7  8  1  0
  7  9  1  0
  9 10  2  0
 10 11  1  0
 11 12  1  0
 12 13  1  0
 13 14  2  0
 14 15  1  0
 15 16  2  0
 16 17  1  0
 17 18  2  0
 18 19  1  0
 19 20  1  0
 20 21  1  0
 21 22  2  0
 21 23  1  0
 23 24  1  0
 24 25  2  0
 24 26  1  0
 10  4  1  0
 18 13  1  0
 26 19  1  0
M  END
$$$$
