
     RDKit          3D

 30 33  0  0  0  0  0  0  0  0999 V2000
  -14.4444   -1.7562  -30.2822 N   0  0  0  0  0  0  0  0  0  0  0  0
  -13.2396   -2.3619  -30.0559 C   0  0  0  0  0  0  0  0  0  0  0  0
  -12.3193   -1.7861  -29.4950 O   0  0  0  0  0  0  0  0  0  0  0  0
  -13.1174   -3.7558  -30.5277 C   0  0  0  0  0  0  0  0  0  0  0  0
  -14.0300   -4.6672  -29.9738 C   0  0  0  0  0  0  0  0  0  0  0  0
  -13.8950   -6.0034  -30.2867 C   0  0  0  0  0  0  0  0  0  0  0  0
  -12.9302   -6.4751  -31.0935 N   0  0  0  0  0  0  0  0  0  0  0  0
  -12.0639   -5.5639  -31.6059 C   0  0  0  0  0  0  0  0  0  0  0  0
  -12.0876   -4.1793  -31.3845 C   0  0  0  0  0  0  0  0  0  0  0  0
  -11.1491   -3.3770  -32.0316 N   0  0  0  0  0  0  0  0  0  0  0  0
  -11.5292   -2.0805  -32.6159 C   0  0  0  0  0  0  0  0  0  0  0  0
  -10.8928   -0.8830  -31.9263 C   0  0  0  0  0  0  0  0  0  0  0  0
  -11.4076    0.2376  -32.0021 O   0  0  0  0  0  0  0  0  0  0  0  0
   -9.5052   -1.0587  -31.3481 C   0  0  0  0  0  0  0  0  0  0  0  0
   -9.3043   -2.4348  -30.7303 C   0  0  0  0  0  0  0  0  0  0  0  0
   -9.7275   -3.5808  -31.6646 C   0  0  0  0  0  0  0  0  0  0  0  0
   -8.8518   -3.7133  -32.9440 C   0  0  0  0  0  0  0  0  0  0  0  0
   -7.4686   -4.0768  -32.6163 N   0  0  0  0  0  0  0  0  0  0  0  0
   -6.5729   -3.9532  -33.7184 C   0  0  0  0  0  0  0  0  0  0  0  0
   -6.7826   -4.6197  -34.9238 C   0  0  0  0  0  0  0  0  0  0  0  0
   -5.8577   -4.4447  -35.9405 C   0  0  0  0  0  0  0  0  0  0  0  0
   -4.7549   -3.6721  -35.8381 N   0  0  0  0  0  0  0  0  0  0  0  0
   -4.5611   -3.0530  -34.6490 C   0  0  0  0  0  0  0  0  0  0  0  0
   -5.4200   -3.1498  -33.5534 C   0  0  0  0  0  0  0  0  0  0  0  0
   -5.2085   -2.5165  -32.3008 N   0  0  0  0  0  0  0  0  0  0  0  0
   -4.8290   -1.0920  -32.3688 C   0  0  0  0  0  0  0  0  0  0  0  0
   -3.4008   -0.8546  -31.8878 C   0  0  0  0  0  0  0  0  0  0  0  0
   -3.1949   -1.3650  -30.4610 C   0  0  0  0  0  0  0  0  0  0  0  0
   -4.0186   -2.6171  -30.1556 C   0  0  0  0  0  0  0  0  0  0  0  0
   -4.3777   -3.3760  -31.4291 C   0  0  0  0  0  0  0  0  0  0  0  0
  1  2  1  0
  2  3  2  0
  2  4  1  0
  4  5  2  0
  5  6  1  0
  6  7  2  0
  7  8  1  0
  8  9  2  0
  9 10  1  0
 10 11  1  0
 11 12  1  0
 12 13  2  0
 12 14  1  0
 14 15  1  0
 15 16  1  0
 16 17  1  0
 17 18  1  0
 18 19  1  0
 19 20  2  0
 20 21  1  0
 21 22  2  0
 22 23  1  0
 23 24  2  0
 24 25  1  0
 25 26  1  0
 26 27  1  0
 27 28  1  0
 28 29  1  0
 29 30  1  0
  9  4  1  0
 16 10  1  0
 24 19  1  0
 30 25  1  0
M  END
$$$$
