
     RDKit          3D

 16 17  0  0  0  0  0  0  0  0999 V2000
  -22.1540  -14.3939   14.0873 N   0  0  0  0  0  0  0  0  0  0  0  0
  -21.5925  -15.4847   14.8725 C   0  0  0  0  0  0  0  0  0  0  0  0
  -22.6888  -16.1723   15.6829 C   0  0  0  0  0  0  0  0  0  0  0  0
  -22.1063  -17.2544   16.5830 C   0  0  0  0  0  0  0  0  0  0  0  0
  -23.1738  -18.1430   17.1912 C   0  0  0  0  0  0  0  0  0  0  0  0
  -23.2225  -19.3426   16.9041 O   0  0  0  0  0  0  0  0  0  0  0  0
  -24.1496  -17.5187   18.1719 C   0  0  0  0  0  0  0  0  0  0  0  0
  -25.4553  -17.1753   17.5339 C   0  0  0  0  0  0  0  0  0  0  0  0
  -26.3222  -18.0612   16.9219 C   0  0  0  0  0  0  0  0  0  0  0  0
  -27.4071  -17.3648   16.4672 N   0  0  0  0  0  0  0  0  0  0  0  0
  -27.2796  -16.0321   16.7785 C   0  0  0  0  0  0  0  0  0  0  0  0
  -28.1419  -14.9607   16.5157 C   0  0  0  0  0  0  0  0  0  0  0  0
  -27.7540  -13.6928   16.9566 C   0  0  0  0  0  0  0  0  0  0  0  0
  -26.5522  -13.5072   17.6342 C   0  0  0  0  0  0  0  0  0  0  0  0
  -25.7025  -14.5900   17.8898 C   0  0  0  0  0  0  0  0  0  0  0  0
  -26.0671  -15.8812   17.4532 C   0  0  0  0  0  0  0  0  0  0  0  0
  1  2  1  0
  2  3  1  0
  3  4  1  0
  4  5  1  0
  5  6  2  0
  5  7  1  0
  7  8  1  0
  8  9  2  0
  9 10  1  0
 10 11  1  0
 11 12  2  0
 12 13  1  0
 13 14  2  0
 14 15  1  0
 15 16  2  0
 16  8  1  0
 16 11  1  0
M  END
$$$$
