
     RDKit          3D

 32 35  0  0  0  0  0  0  0  0999 V2000
  -12.8749    7.6711   12.5675 N   0  0  0  0  0  0  0  0  0  0  0  0
  -12.4560    7.9543   13.8849 C   0  0  0  0  0  0  0  0  0  0  0  0
  -11.3122    8.7502   14.0591 C   0  0  0  0  0  0  0  0  0  0  0  0
  -10.9140    9.1693   15.3312 C   0  0  0  0  0  0  0  0  0  0  0  0
  -11.6801    8.8049   16.4335 C   0  0  0  0  0  0  0  0  0  0  0  0
  -11.1791    9.2708   18.0661 S   0  0  0  0  0  0  0  0  0  0  0  0
  -12.2162   10.5564   18.3903 N   0  0  0  0  0  0  0  0  0  0  0  0
   -9.8587    9.8545   17.9909 O   0  0  0  0  0  0  0  0  0  0  0  0
  -11.5041    8.1944   18.9698 O   0  0  0  0  0  0  0  0  0  0  0  0
  -12.8374    8.0387   16.2732 C   0  0  0  0  0  0  0  0  0  0  0  0
  -13.2717    7.6367   14.9985 C   0  0  0  0  0  0  0  0  0  0  0  0
  -14.4404    6.8714   14.9340 N   0  0  0  0  0  0  0  0  0  0  0  0
  -14.3034    5.5537   14.2774 C   0  0  0  0  0  0  0  0  0  0  0  0
  -14.9212    5.5099   12.8881 C   0  0  0  0  0  0  0  0  0  0  0  0
  -14.4938    4.7601   12.0054 O   0  0  0  0  0  0  0  0  0  0  0  0
  -16.2169    6.2651   12.6876 C   0  0  0  0  0  0  0  0  0  0  0  0
  -16.1968    7.6284   13.3677 C   0  0  0  0  0  0  0  0  0  0  0  0
  -15.7756    7.5207   14.8433 C   0  0  0  0  0  0  0  0  0  0  0  0
  -15.8725    8.8982   15.5611 C   0  0  0  0  0  0  0  0  0  0  0  0
  -17.2420    9.4227   15.6877 N   0  0  0  0  0  0  0  0  0  0  0  0
  -18.1309    8.6747   16.5021 C   0  0  0  0  0  0  0  0  0  0  0  0
  -17.7979    8.2904   17.8020 C   0  0  0  0  0  0  0  0  0  0  0  0
  -18.7140    7.5510   18.5323 C   0  0  0  0  0  0  0  0  0  0  0  0
  -19.9260    7.1840   18.0679 N   0  0  0  0  0  0  0  0  0  0  0  0
  -20.2415    7.5937   16.8169 C   0  0  0  0  0  0  0  0  0  0  0  0
  -19.4057    8.3396   15.9833 C   0  0  0  0  0  0  0  0  0  0  0  0
  -19.7586    8.7875   14.6889 N   0  0  0  0  0  0  0  0  0  0  0  0
  -20.2980   10.1647   14.7132 C   0  0  0  0  0  0  0  0  0  0  0  0
  -21.7214   10.2225   14.1562 C   0  0  0  0  0  0  0  0  0  0  0  0
  -21.7939    9.6632   12.7353 C   0  0  0  0  0  0  0  0  0  0  0  0
  -20.8411    8.4880   12.5165 C   0  0  0  0  0  0  0  0  0  0  0  0
  -20.4645    7.8173   13.8395 C   0  0  0  0  0  0  0  0  0  0  0  0
  1  2  1  0
  2  3  2  0
  3  4  1  0
  4  5  2  0
  5  6  1  0
  6  7  1  0
  6  8  2  0
  6  9  2  0
  5 10  1  0
 10 11  2  0
 11 12  1  0
 12 13  1  0
 13 14  1  0
 14 15  2  0
 14 16  1  0
 16 17  1  0
 17 18  1  0
 18 19  1  0
 19 20  1  0
 20 21  1  0
 21 22  2  0
 22 23  1  0
 23 24  2  0
 24 25  1  0
 25 26  2  0
 26 27  1  0
 27 28  1  0
 28 29  1  0
 29 30  1  0
 30 31  1  0
 31 32  1  0
 11  2  1  0
 18 12  1  0
 26 21  1  0
 32 27  1  0
M  END
$$$$
