
     RDKit          3D

 19 20  0  0  0  0  0  0  0  0999 V2000
   11.7218    8.0051  -14.9274 N   0  0  0  0  0  0  0  0  0  0  0  0
   12.2288    7.4875  -16.1928 C   0  0  0  0  0  0  0  0  0  0  0  0
   12.2588    8.5664  -17.2650 C   0  0  0  0  0  0  0  0  0  0  0  0
   10.8668    8.9469  -17.7253 C   0  0  0  0  0  0  0  0  0  0  0  0
   10.1100    8.1267  -18.2489 O   0  0  0  0  0  0  0  0  0  0  0  0
   10.4381   10.3739  -17.5354 C   0  0  0  0  0  0  0  0  0  0  0  0
   10.0024   10.6810  -16.1297 C   0  0  0  0  0  0  0  0  0  0  0  0
   10.7959   11.1570  -15.3147 O   0  0  0  0  0  0  0  0  0  0  0  0
    8.5722   10.3651  -15.7530 C   0  0  0  0  0  0  0  0  0  0  0  0
    8.4802    9.0592  -14.9779 C   0  0  0  0  0  0  0  0  0  0  0  0
    7.0599    8.6728  -14.7132 C   0  0  0  0  0  0  0  0  0  0  0  0
    6.3132    8.9927  -13.5965 C   0  0  0  0  0  0  0  0  0  0  0  0
    5.0630    8.4564  -13.7481 N   0  0  0  0  0  0  0  0  0  0  0  0
    4.9712    7.7913  -14.9483 C   0  0  0  0  0  0  0  0  0  0  0  0
    3.8943    7.1024  -15.5192 C   0  0  0  0  0  0  0  0  0  0  0  0
    4.0935    6.5121  -16.7708 C   0  0  0  0  0  0  0  0  0  0  0  0
    5.3207    6.6082  -17.4224 C   0  0  0  0  0  0  0  0  0  0  0  0
    6.3869    7.3009  -16.8375 C   0  0  0  0  0  0  0  0  0  0  0  0
    6.2117    7.9059  -15.5757 C   0  0  0  0  0  0  0  0  0  0  0  0
  1  2  1  0
  2  3  1  0
  3  4  1  0
  4  5  2  0
  4  6  1  0
  6  7  1  0
  7  8  2  0
  7  9  1  0
  9 10  1  0
 10 11  1  0
 11 12  2  0
 12 13  1  0
 13 14  1  0
 14 15  2  0
 15 16  1  0
 16 17  2  0
 17 18  1  0
 18 19  2  0
 19 11  1  0
 19 14  1  0
M  END
$$$$
