
     RDKit          3D

 18 19  0  0  0  0  0  0  0  0999 V2000
   25.0546    1.2320    5.8239 C   0  0  0  0  0  0  0  0  0  0  0  0
   24.3329    1.7093    6.9942 N   0  0  0  0  0  0  0  0  0  0  0  0
   23.1469    0.9058    7.2986 C   0  0  0  0  0  0  0  0  0  0  0  0
   21.9688    1.1923    6.3608 C   0  0  0  0  0  0  0  0  0  0  0  0
   20.7327    0.3346    6.6595 C   0  0  0  0  0  0  0  0  0  0  0  0
   20.0647    0.6732    7.9949 C   0  0  0  0  0  0  0  0  0  0  0  0
   18.8276   -0.1821    8.2892 C   0  0  0  0  0  0  0  0  0  0  0  0
   17.6569    0.0906    7.3422 C   0  0  0  0  0  0  0  0  0  0  0  0
   16.4142   -0.6989    7.7596 C   0  0  0  0  0  0  0  0  0  0  0  0
   15.2676   -0.4419    6.8249 C   0  0  0  0  0  0  0  0  0  0  0  0
   15.1300   -1.2579    5.7343 N   0  0  0  0  0  0  0  0  0  0  0  0
   14.1110   -1.0267    4.8759 C   0  0  0  0  0  0  0  0  0  0  0  0
   13.1720   -0.0618    4.9385 N   0  0  0  0  0  0  0  0  0  0  0  0
   13.3600    0.7101    6.0184 C   0  0  0  0  0  0  0  0  0  0  0  0
   12.6076    1.7829    6.3977 N   0  0  0  0  0  0  0  0  0  0  0  0
   13.1514    2.2798    7.5507 C   0  0  0  0  0  0  0  0  0  0  0  0
   14.2053    1.5900    7.9337 N   0  0  0  0  0  0  0  0  0  0  0  0
   14.3470    0.6017    6.9840 C   0  0  0  0  0  0  0  0  0  0  0  0
  1  2  1  0
  2  3  1  0
  3  4  1  0
  4  5  1  0
  5  6  1  0
  6  7  1  0
  7  8  1  0
  8  9  1  0
  9 10  1  0
 10 11  2  0
 11 12  1  0
 12 13  2  0
 13 14  1  0
 14 15  1  0
 15 16  1  0
 16 17  2  0
 17 18  1  0
 18 10  1  0
 18 14  2  0
M  END
$$$$
