
     RDKit          3D

 19 20  0  0  0  0  0  0  0  0999 V2000
   13.3646   -8.4890    0.1098 N   0  0  0  0  0  0  0  0  0  0  0  0
   13.8716   -9.0067   -1.1557 C   0  0  0  0  0  0  0  0  0  0  0  0
   13.9016   -7.9277   -2.2279 C   0  0  0  0  0  0  0  0  0  0  0  0
   12.5096   -7.5473   -2.6881 C   0  0  0  0  0  0  0  0  0  0  0  0
   11.7528   -8.3675   -3.2118 O   0  0  0  0  0  0  0  0  0  0  0  0
   12.0809   -6.1203   -2.4983 C   0  0  0  0  0  0  0  0  0  0  0  0
   11.6452   -5.8132   -1.0925 C   0  0  0  0  0  0  0  0  0  0  0  0
   12.4387   -5.3371   -0.2775 O   0  0  0  0  0  0  0  0  0  0  0  0
   10.2150   -6.1291   -0.7158 C   0  0  0  0  0  0  0  0  0  0  0  0
   10.1229   -7.4349    0.0593 C   0  0  0  0  0  0  0  0  0  0  0  0
    8.7027   -7.8214    0.3240 C   0  0  0  0  0  0  0  0  0  0  0  0
    7.9560   -7.5015    1.4407 C   0  0  0  0  0  0  0  0  0  0  0  0
    6.7057   -8.0378    1.2891 N   0  0  0  0  0  0  0  0  0  0  0  0
    6.6140   -8.7028    0.0889 C   0  0  0  0  0  0  0  0  0  0  0  0
    5.5371   -9.3918   -0.4820 C   0  0  0  0  0  0  0  0  0  0  0  0
    5.7363   -9.9821   -1.7337 C   0  0  0  0  0  0  0  0  0  0  0  0
    6.9635   -9.8860   -2.3853 C   0  0  0  0  0  0  0  0  0  0  0  0
    8.0297   -9.1932   -1.8003 C   0  0  0  0  0  0  0  0  0  0  0  0
    7.8545   -8.5882   -0.5385 C   0  0  0  0  0  0  0  0  0  0  0  0
  1  2  1  0
  2  3  1  0
  3  4  1  0
  4  5  2  0
  4  6  1  0
  6  7  1  0
  7  8  2  0
  7  9  1  0
  9 10  1  0
 10 11  1  0
 11 12  2  0
 12 13  1  0
 13 14  1  0
 14 15  2  0
 15 16  1  0
 16 17  2  0
 17 18  1  0
 18 19  2  0
 19 11  1  0
 19 14  1  0
M  END
$$$$
