
     RDKit          3D

 25 27  0  0  0  0  0  0  0  0999 V2000
   -9.8214   -7.4375   -8.0086 C   0  0  0  0  0  0  0  0  0  0  0  0
  -10.4923   -7.7128   -9.2743 N   0  0  0  0  0  0  0  0  0  0  0  0
   -9.7401   -8.6663  -10.0972 C   0  0  0  0  0  0  0  0  0  0  0  0
   -8.4538   -8.1064  -10.6550 C   0  0  0  0  0  0  0  0  0  0  0  0
   -8.4567   -6.9551  -11.4411 C   0  0  0  0  0  0  0  0  0  0  0  0
   -7.2670   -6.4671  -11.9843 C   0  0  0  0  0  0  0  0  0  0  0  0
   -6.0429   -7.1158  -11.7522 C   0  0  0  0  0  0  0  0  0  0  0  0
   -4.8588   -6.6640  -12.2804 O   0  0  0  0  0  0  0  0  0  0  0  0
   -4.9108   -5.6411  -13.2650 C   0  0  0  0  0  0  0  0  0  0  0  0
   -6.0038   -8.2608  -10.9213 C   0  0  0  0  0  0  0  0  0  0  0  0
   -4.8755   -9.0573  -10.6399 N   0  0  0  0  0  0  0  0  0  0  0  0
   -3.5238   -8.5626  -10.8850 C   0  0  0  0  0  0  0  0  0  0  0  0
   -2.5094   -9.5607  -10.3233 C   0  0  0  0  0  0  0  0  0  0  0  0
   -1.0685   -9.1845  -10.6683 C   0  0  0  0  0  0  0  0  0  0  0  0
   -0.6350   -7.9457  -10.0460 N   0  0  0  0  0  0  0  0  0  0  0  0
   -0.4260   -7.9337   -8.6694 C   0  0  0  0  0  0  0  0  0  0  0  0
   -0.1117   -9.0723   -7.9949 N   0  0  0  0  0  0  0  0  0  0  0  0
    0.0957   -9.0045   -6.6609 C   0  0  0  0  0  0  0  0  0  0  0  0
    0.0236   -7.9259   -5.8545 N   0  0  0  0  0  0  0  0  0  0  0  0
   -0.2945   -6.8341   -6.5630 C   0  0  0  0  0  0  0  0  0  0  0  0
   -0.4581   -5.5656   -6.0881 N   0  0  0  0  0  0  0  0  0  0  0  0
   -0.7867   -4.7661   -7.1494 C   0  0  0  0  0  0  0  0  0  0  0  0
   -0.8422   -5.4437   -8.2770 N   0  0  0  0  0  0  0  0  0  0  0  0
   -0.5289   -6.7432   -7.9233 C   0  0  0  0  0  0  0  0  0  0  0  0
   -7.2304   -8.7491  -10.4180 C   0  0  0  0  0  0  0  0  0  0  0  0
  1  2  1  0
  2  3  1  0
  3  4  1  0
  4  5  2  0
  5  6  1  0
  6  7  2  0
  7  8  1  0
  8  9  1  0
  7 10  1  0
 10 11  1  0
 11 12  1  0
 12 13  1  0
 13 14  1  0
 14 15  1  0
 15 16  1  0
 16 17  2  0
 17 18  1  0
 18 19  2  0
 19 20  1  0
 20 21  1  0
 21 22  1  0
 22 23  2  0
 23 24  1  0
 10 25  2  0
 25  4  1  0
 24 16  1  0
 24 20  2  0
M  END
$$$$
