
     RDKit          3D

 20 21  0  0  0  0  0  0  0  0999 V2000
    9.1605   -4.3701    2.9063 C   0  0  0  0  0  0  0  0  0  0  0  0
    9.3052   -3.0469    3.5105 N   0  0  0  0  0  0  0  0  0  0  0  0
    8.9175   -1.9834    2.5702 C   0  0  0  0  0  0  0  0  0  0  0  0
    7.4125   -1.9759    2.3262 C   0  0  0  0  0  0  0  0  0  0  0  0
    6.9613   -2.2504    1.2115 O   0  0  0  0  0  0  0  0  0  0  0  0
    6.5393   -1.6592    3.5307 C   0  0  0  0  0  0  0  0  0  0  0  0
    5.2042   -1.0416    3.1833 C   0  0  0  0  0  0  0  0  0  0  0  0
    5.1989    0.3392    2.8938 C   0  0  0  0  0  0  0  0  0  0  0  0
    4.0174    1.0098    2.5801 C   0  0  0  0  0  0  0  0  0  0  0  0
    2.8107    0.3223    2.5420 C   0  0  0  0  0  0  0  0  0  0  0  0
    1.7218    1.0875    2.2262 O   0  0  0  0  0  0  0  0  0  0  0  0
    0.4763    0.4097    2.1186 C   0  0  0  0  0  0  0  0  0  0  0  0
    2.8059   -1.0443    2.8200 C   0  0  0  0  0  0  0  0  0  0  0  0
    3.9883   -1.7512    3.1347 C   0  0  0  0  0  0  0  0  0  0  0  0
    3.8214   -3.1192    3.3826 N   0  0  0  0  0  0  0  0  0  0  0  0
    4.5249   -4.0372    2.4825 C   0  0  0  0  0  0  0  0  0  0  0  0
    3.8738   -5.4180    2.5808 C   0  0  0  0  0  0  0  0  0  0  0  0
    3.8361   -5.9060    4.0293 C   0  0  0  0  0  0  0  0  0  0  0  0
    3.1571   -4.8783    4.9349 C   0  0  0  0  0  0  0  0  0  0  0  0
    3.8023   -3.4980    4.7976 C   0  0  0  0  0  0  0  0  0  0  0  0
  1  2  1  0
  2  3  1  0
  3  4  1  0
  4  5  2  0
  4  6  1  0
  6  7  1  0
  7  8  2  0
  8  9  1  0
  9 10  2  0
 10 11  1  0
 11 12  1  0
 10 13  1  0
 13 14  2  0
 14 15  1  0
 15 16  1  0
 16 17  1  0
 17 18  1  0
 18 19  1  0
 19 20  1  0
 14  7  1  0
 20 15  1  0
M  END
$$$$
