
     RDKit          3D

 26 28  0  0  0  0  0  0  0  0999 V2000
  -48.6928  -56.1951   -2.9891 C   0  0  0  0  0  0  0  0  0  0  0  0
  -48.1458  -55.1909   -3.8639 N   0  0  0  0  0  0  0  0  0  0  0  0
  -47.1752  -54.3184   -3.4268 C   0  0  0  0  0  0  0  0  0  0  0  0
  -46.6555  -54.3837   -2.3231 O   0  0  0  0  0  0  0  0  0  0  0  0
  -46.7778  -53.2900   -4.4646 C   0  0  0  0  0  0  0  0  0  0  0  0
  -47.4771  -51.9632   -4.2779 C   0  0  0  0  0  0  0  0  0  0  0  0
  -46.8697  -51.0219   -3.4286 C   0  0  0  0  0  0  0  0  0  0  0  0
  -47.4518  -49.7757   -3.1964 C   0  0  0  0  0  0  0  0  0  0  0  0
  -48.6525  -49.4489   -3.8133 C   0  0  0  0  0  0  0  0  0  0  0  0
  -49.3248  -48.2646   -3.6868 O   0  0  0  0  0  0  0  0  0  0  0  0
  -48.7070  -47.2620   -2.8895 C   0  0  0  0  0  0  0  0  0  0  0  0
  -49.2717  -50.3855   -4.6465 C   0  0  0  0  0  0  0  0  0  0  0  0
  -48.7172  -51.6573   -4.8831 C   0  0  0  0  0  0  0  0  0  0  0  0
  -49.3366  -52.6031   -5.7493 N   0  0  0  0  0  0  0  0  0  0  0  0
  -48.8523  -52.3383   -7.1318 C   0  0  0  0  0  0  0  0  0  0  0  0
  -49.3681  -53.3682   -8.1301 C   0  0  0  0  0  0  0  0  0  0  0  0
  -48.8149  -53.5231   -9.2349 O   0  0  0  0  0  0  0  0  0  0  0  0
  -50.6955  -54.0499   -7.8533 C   0  0  0  0  0  0  0  0  0  0  0  0
  -51.1652  -54.0132   -6.4008 C   0  0  0  0  0  0  0  0  0  0  0  0
  -50.8253  -52.6706   -5.7099 C   0  0  0  0  0  0  0  0  0  0  0  0
  -51.5704  -52.4998   -4.4619 N   0  0  0  0  0  0  0  0  0  0  0  0
  -52.9681  -52.1233   -4.6096 C   0  0  0  0  0  0  0  0  0  0  0  0
  -53.5053  -51.6182   -3.2717 C   0  0  0  0  0  0  0  0  0  0  0  0
  -53.3349  -52.6344   -2.1423 C   0  0  0  0  0  0  0  0  0  0  0  0
  -52.4996  -53.8380   -2.5623 C   0  0  0  0  0  0  0  0  0  0  0  0
  -51.2713  -53.4343   -3.3812 C   0  0  0  0  0  0  0  0  0  0  0  0
  1  2  1  0
  2  3  1  0
  3  4  2  0
  3  5  1  0
  5  6  1  0
  6  7  2  0
  7  8  1  0
  8  9  2  0
  9 10  1  0
 10 11  1  0
  9 12  1  0
 12 13  2  0
 13 14  1  0
 14 15  1  0
 15 16  1  0
 16 17  2  0
 16 18  1  0
 18 19  1  0
 19 20  1  0
 20 21  1  0
 21 22  1  0
 22 23  1  0
 23 24  1  0
 24 25  1  0
 25 26  1  0
 13  6  1  0
 20 14  1  0
 26 21  1  0
M  END
$$$$
