
     RDKit          3D

 28 31  0  0  0  0  0  0  0  0999 V2000
  -47.9454    1.2511   30.8787 N   0  0  0  0  0  0  0  0  0  0  0  0
  -48.4573    2.8320   30.5326 S   0  0  0  0  0  0  0  0  0  0  0  0
  -47.2445    3.6171   30.6617 O   0  0  0  0  0  0  0  0  0  0  0  0
  -49.6240    3.0375   31.3666 O   0  0  0  0  0  0  0  0  0  0  0  0
  -49.0074    2.7261   28.8463 C   0  0  0  0  0  0  0  0  0  0  0  0
  -49.6934    1.5530   28.4773 C   0  0  0  0  0  0  0  0  0  0  0  0
  -50.0943    1.4100   27.1612 C   0  0  0  0  0  0  0  0  0  0  0  0
  -49.8751    2.3448   26.2146 N   0  0  0  0  0  0  0  0  0  0  0  0
  -49.2296    3.4740   26.6107 C   0  0  0  0  0  0  0  0  0  0  0  0
  -48.7544    3.7415   27.9056 C   0  0  0  0  0  0  0  0  0  0  0  0
  -48.1060    4.9383   28.2159 N   0  0  0  0  0  0  0  0  0  0  0  0
  -48.9491    5.9416   28.8874 C   0  0  0  0  0  0  0  0  0  0  0  0
  -48.1136    7.1598   29.2660 C   0  0  0  0  0  0  0  0  0  0  0  0
  -47.5136    7.8292   28.0292 C   0  0  0  0  0  0  0  0  0  0  0  0
  -47.3225    6.8538   26.8647 C   0  0  0  0  0  0  0  0  0  0  0  0
  -47.0368    5.4218   27.3294 C   0  0  0  0  0  0  0  0  0  0  0  0
  -45.8033    5.4173   28.0464 O   0  0  0  0  0  0  0  0  0  0  0  0
  -45.2185    4.1256   28.0515 C   0  0  0  0  0  0  0  0  0  0  0  0
  -44.1649    4.1073   29.0519 N   0  0  0  0  0  0  0  0  0  0  0  0
  -43.4747    2.9553   29.2055 C   0  0  0  0  0  0  0  0  0  0  0  0
  -43.3485    2.2322   30.2924 N   0  0  0  0  0  0  0  0  0  0  0  0
  -42.5496    1.1700   29.9372 C   0  0  0  0  0  0  0  0  0  0  0  0
  -42.1102    0.0780   30.7032 C   0  0  0  0  0  0  0  0  0  0  0  0
  -41.2850   -0.8816   30.0959 C   0  0  0  0  0  0  0  0  0  0  0  0
  -40.9083   -0.7575   28.7567 C   0  0  0  0  0  0  0  0  0  0  0  0
  -41.3427    0.3242   27.9741 C   0  0  0  0  0  0  0  0  0  0  0  0
  -42.1607    1.2642   28.6055 C   0  0  0  0  0  0  0  0  0  0  0  0
  -42.7433    2.4294   28.1720 N   0  0  0  0  0  0  0  0  0  0  0  0
  1  2  1  0
  2  3  2  0
  2  4  2  0
  2  5  1  0
  5  6  2  0
  6  7  1  0
  7  8  2  0
  8  9  1  0
  9 10  2  0
 10 11  1  0
 11 12  1  0
 12 13  1  0
 13 14  1  0
 14 15  1  0
 15 16  1  0
 16 17  1  0
 17 18  1  0
 18 19  1  0
 19 20  1  0
 20 21  2  0
 21 22  1  0
 22 23  2  0
 23 24  1  0
 24 25  2  0
 25 26  1  0
 26 27  2  0
 27 28  1  0
 10  5  1  0
 16 11  1  0
 28 20  1  0
 27 22  1  0
M  END
$$$$
