
     RDKit          3D

 26 28  0  0  0  0  0  0  0  0999 V2000
   -7.7409    6.7555    4.7728 N   0  0  0  0  0  0  0  0  0  0  0  0
   -8.7329    5.7308    4.4664 C   0  0  0  0  0  0  0  0  0  0  0  0
   -8.9201    4.7983    5.6365 C   0  0  0  0  0  0  0  0  0  0  0  0
   -8.2343    3.5758    5.6574 C   0  0  0  0  0  0  0  0  0  0  0  0
   -8.4016    2.7281    6.7406 C   0  0  0  0  0  0  0  0  0  0  0  0
   -9.1919    3.0067    7.7953 N   0  0  0  0  0  0  0  0  0  0  0  0
   -9.8388    4.1937    7.7654 C   0  0  0  0  0  0  0  0  0  0  0  0
   -9.7374    5.1272    6.7341 C   0  0  0  0  0  0  0  0  0  0  0  0
  -10.5234    6.4109    6.8201 C   0  0  0  0  0  0  0  0  0  0  0  0
  -11.7494    6.2705    6.0396 N   0  0  0  0  0  0  0  0  0  0  0  0
  -12.6987    7.3166    6.1889 C   0  0  0  0  0  0  0  0  0  0  0  0
  -12.3198    8.6653    6.1302 C   0  0  0  0  0  0  0  0  0  0  0  0
  -13.2670    9.6738    6.2943 C   0  0  0  0  0  0  0  0  0  0  0  0
  -14.6003    9.3297    6.5120 C   0  0  0  0  0  0  0  0  0  0  0  0
  -15.8098   10.6039    6.6992 S   0  0  0  0  0  0  0  0  0  0  0  0
  -15.8059   10.8434    8.3612 N   0  0  0  0  0  0  0  0  0  0  0  0
  -17.1166   10.0778    6.3797 O   0  0  0  0  0  0  0  0  0  0  0  0
  -15.3077   11.8292    6.1224 O   0  0  0  0  0  0  0  0  0  0  0  0
  -15.0071    7.9907    6.5225 C   0  0  0  0  0  0  0  0  0  0  0  0
  -14.0759    6.9638    6.3346 C   0  0  0  0  0  0  0  0  0  0  0  0
  -14.4370    5.6049    6.2999 N   0  0  0  0  0  0  0  0  0  0  0  0
  -14.3875    4.9889    4.9600 C   0  0  0  0  0  0  0  0  0  0  0  0
  -15.7594    5.0079    4.2909 C   0  0  0  0  0  0  0  0  0  0  0  0
  -16.8054    4.3435    5.1786 C   0  0  0  0  0  0  0  0  0  0  0  0
  -16.8582    5.0227    6.5423 C   0  0  0  0  0  0  0  0  0  0  0  0
  -15.4801    5.0980    7.2002 C   0  0  0  0  0  0  0  0  0  0  0  0
  1  2  1  0
  2  3  1  0
  3  4  2  0
  4  5  1  0
  5  6  2  0
  6  7  1  0
  7  8  2  0
  8  9  1  0
  9 10  1  0
 10 11  1  0
 11 12  2  0
 12 13  1  0
 13 14  2  0
 14 15  1  0
 15 16  1  0
 15 17  2  0
 15 18  2  0
 14 19  1  0
 19 20  2  0
 20 21  1  0
 21 22  1  0
 22 23  1  0
 23 24  1  0
 24 25  1  0
 25 26  1  0
  8  3  1  0
 20 11  1  0
 26 21  1  0
M  END
$$$$
