
     RDKit          3D

 26 29  0  0  0  0  0  0  0  0999 V2000
   -4.9069    3.8624   -4.0770 N   0  0  0  0  0  0  0  0  0  0  0  0
   -5.1828    2.7945   -4.9656 C   0  0  0  0  0  0  0  0  0  0  0  0
   -5.5248    1.5447   -4.4471 C   0  0  0  0  0  0  0  0  0  0  0  0
   -5.7860    0.5088   -5.3278 C   0  0  0  0  0  0  0  0  0  0  0  0
   -5.7584    0.6393   -6.6678 N   0  0  0  0  0  0  0  0  0  0  0  0
   -5.5090    1.8850   -7.1400 C   0  0  0  0  0  0  0  0  0  0  0  0
   -5.2519    3.0145   -6.3562 C   0  0  0  0  0  0  0  0  0  0  0  0
   -5.0955    4.2620   -6.9516 N   0  0  0  0  0  0  0  0  0  0  0  0
   -5.9173    5.3806   -6.4792 C   0  0  0  0  0  0  0  0  0  0  0  0
   -6.2139    6.3278   -7.6381 C   0  0  0  0  0  0  0  0  0  0  0  0
   -7.2693    6.9619   -7.7108 O   0  0  0  0  0  0  0  0  0  0  0  0
   -5.0875    6.5988   -8.6179 C   0  0  0  0  0  0  0  0  0  0  0  0
   -4.3017    5.3350   -8.9585 C   0  0  0  0  0  0  0  0  0  0  0  0
   -3.8720    4.5476   -7.7100 C   0  0  0  0  0  0  0  0  0  0  0  0
   -2.7954    5.3203   -6.8843 C   0  0  0  0  0  0  0  0  0  0  0  0
   -2.4399    4.6588   -5.6206 N   0  0  0  0  0  0  0  0  0  0  0  0
   -1.2375    5.2156   -5.0000 C   0  0  0  0  0  0  0  0  0  0  0  0
   -0.0107    4.7154   -5.6929 C   0  0  0  0  0  0  0  0  0  0  0  0
    0.8325    5.4490   -6.5079 C   0  0  0  0  0  0  0  0  0  0  0  0
    1.8391    4.6287   -6.9404 N   0  0  0  0  0  0  0  0  0  0  0  0
    1.6799    3.3656   -6.4220 C   0  0  0  0  0  0  0  0  0  0  0  0
    2.4612    2.2165   -6.5927 C   0  0  0  0  0  0  0  0  0  0  0  0
    2.0567    1.0535   -5.9314 C   0  0  0  0  0  0  0  0  0  0  0  0
    0.9179    1.0435   -5.1303 C   0  0  0  0  0  0  0  0  0  0  0  0
    0.1490    2.2018   -4.9693 C   0  0  0  0  0  0  0  0  0  0  0  0
    0.5327    3.3887   -5.6287 C   0  0  0  0  0  0  0  0  0  0  0  0
  1  2  1  0
  2  3  2  0
  3  4  1  0
  4  5  2  0
  5  6  1  0
  6  7  2  0
  7  8  1  0
  8  9  1  0
  9 10  1  0
 10 11  2  0
 10 12  1  0
 12 13  1  0
 13 14  1  0
 14 15  1  0
 15 16  1  0
 16 17  1  0
 17 18  1  0
 18 19  2  0
 19 20  1  0
 20 21  1  0
 21 22  2  0
 22 23  1  0
 23 24  2  0
 24 25  1  0
 25 26  2  0
  7  2  1  0
 14  8  1  0
 26 18  1  0
 26 21  1  0
M  END
$$$$
