
     RDKit          3D

 30 33  0  0  0  0  0  0  0  0999 V2000
  -42.2914  -33.9255   20.8549 N   0  0  0  0  0  0  0  0  0  0  0  0
  -42.1008  -32.7127   20.1668 C   0  0  0  0  0  0  0  0  0  0  0  0
  -42.8769  -31.6025   20.5248 C   0  0  0  0  0  0  0  0  0  0  0  0
  -42.8493  -30.4392   19.7574 C   0  0  0  0  0  0  0  0  0  0  0  0
  -42.0729  -30.4076   18.6006 C   0  0  0  0  0  0  0  0  0  0  0  0
  -42.0036  -28.9392   17.6137 S   0  0  0  0  0  0  0  0  0  0  0  0
  -43.0305  -29.3338   16.3403 N   0  0  0  0  0  0  0  0  0  0  0  0
  -40.6628  -28.8125   17.0942 O   0  0  0  0  0  0  0  0  0  0  0  0
  -42.6630  -27.8717   18.3296 O   0  0  0  0  0  0  0  0  0  0  0  0
  -41.3114  -31.5148   18.2119 C   0  0  0  0  0  0  0  0  0  0  0  0
  -41.3111  -32.6820   18.9883 C   0  0  0  0  0  0  0  0  0  0  0  0
  -40.5187  -33.7910   18.6478 N   0  0  0  0  0  0  0  0  0  0  0  0
  -40.5469  -34.2063   17.2336 C   0  0  0  0  0  0  0  0  0  0  0  0
  -40.2245  -35.6924   17.1527 C   0  0  0  0  0  0  0  0  0  0  0  0
  -40.5636  -36.3881   16.1950 O   0  0  0  0  0  0  0  0  0  0  0  0
  -39.4561  -36.2705   18.3212 C   0  0  0  0  0  0  0  0  0  0  0  0
  -38.4964  -35.2084   18.8452 C   0  0  0  0  0  0  0  0  0  0  0  0
  -39.2251  -33.9504   19.3720 C   0  0  0  0  0  0  0  0  0  0  0  0
  -38.3417  -32.6843   19.2878 C   0  0  0  0  0  0  0  0  0  0  0  0
  -37.0706  -32.7183   20.1437 C   0  0  0  0  0  0  0  0  0  0  0  0
  -35.9784  -33.4637   19.5467 N   0  0  0  0  0  0  0  0  0  0  0  0
  -35.4033  -33.1299   18.3743 C   0  0  0  0  0  0  0  0  0  0  0  0
  -34.8780  -33.9686   17.5164 N   0  0  0  0  0  0  0  0  0  0  0  0
  -34.4274  -33.1946   16.4744 C   0  0  0  0  0  0  0  0  0  0  0  0
  -33.7938  -33.5730   15.2820 C   0  0  0  0  0  0  0  0  0  0  0  0
  -33.4312  -32.5746   14.3685 C   0  0  0  0  0  0  0  0  0  0  0  0
  -33.6928  -31.2282   14.6374 C   0  0  0  0  0  0  0  0  0  0  0  0
  -34.3232  -30.8311   15.8226 C   0  0  0  0  0  0  0  0  0  0  0  0
  -34.6747  -31.8475   16.7129 C   0  0  0  0  0  0  0  0  0  0  0  0
  -35.2867  -31.8358   17.9395 N   0  0  0  0  0  0  0  0  0  0  0  0
  1  2  1  0
  2  3  2  0
  3  4  1  0
  4  5  2  0
  5  6  1  0
  6  7  1  0
  6  8  2  0
  6  9  2  0
  5 10  1  0
 10 11  2  0
 11 12  1  0
 12 13  1  0
 13 14  1  0
 14 15  2  0
 14 16  1  0
 16 17  1  0
 17 18  1  0
 18 19  1  0
 19 20  1  0
 20 21  1  0
 21 22  1  0
 22 23  2  0
 23 24  1  0
 24 25  2  0
 25 26  1  0
 26 27  2  0
 27 28  1  0
 28 29  2  0
 29 30  1  0
 11  2  1  0
 18 12  1  0
 30 22  1  0
 29 24  1  0
M  END
$$$$
