
     RDKit          3D

 30 32  0  0  0  0  0  0  0  0999 V2000
   -5.2909   22.9604  -15.2096 C   0  0  0  0  0  0  0  0  0  0  0  0
   -6.4715   23.1825  -14.3933 N   0  0  0  0  0  0  0  0  0  0  0  0
   -7.0752   22.1026  -13.7391 C   0  0  0  0  0  0  0  0  0  0  0  0
   -6.4191   20.9009  -13.4642 C   0  0  0  0  0  0  0  0  0  0  0  0
   -7.0481   19.8757  -12.7471 C   0  0  0  0  0  0  0  0  0  0  0  0
   -8.3451   20.0445  -12.2611 C   0  0  0  0  0  0  0  0  0  0  0  0
   -9.0419   19.0962  -11.5551 O   0  0  0  0  0  0  0  0  0  0  0  0
   -8.4031   17.8498  -11.3196 C   0  0  0  0  0  0  0  0  0  0  0  0
   -9.0079   21.2642  -12.4843 C   0  0  0  0  0  0  0  0  0  0  0  0
  -10.2707   21.3634  -11.9533 O   0  0  0  0  0  0  0  0  0  0  0  0
  -10.9839   22.5762  -12.1552 C   0  0  0  0  0  0  0  0  0  0  0  0
  -12.2819   22.4322  -11.5204 N   0  0  0  0  0  0  0  0  0  0  0  0
  -13.2913   23.3290  -11.9400 C   0  0  0  0  0  0  0  0  0  0  0  0
  -13.0557   24.7064  -12.0472 C   0  0  0  0  0  0  0  0  0  0  0  0
  -14.0793   25.5724  -12.4305 C   0  0  0  0  0  0  0  0  0  0  0  0
  -15.3495   25.0594  -12.6943 C   0  0  0  0  0  0  0  0  0  0  0  0
  -16.6602   26.1585  -13.1395 S   0  0  0  0  0  0  0  0  0  0  0  0
  -16.5650   26.1486  -14.8153 N   0  0  0  0  0  0  0  0  0  0  0  0
  -17.9265   25.5466  -12.8103 O   0  0  0  0  0  0  0  0  0  0  0  0
  -16.3187   27.5008  -12.7308 O   0  0  0  0  0  0  0  0  0  0  0  0
  -15.6203   23.6946  -12.5488 C   0  0  0  0  0  0  0  0  0  0  0  0
  -14.6026   22.8133  -12.1631 C   0  0  0  0  0  0  0  0  0  0  0  0
  -14.8170   21.4237  -11.9747 N   0  0  0  0  0  0  0  0  0  0  0  0
  -15.0830   21.1118  -10.5587 C   0  0  0  0  0  0  0  0  0  0  0  0
  -14.9076   19.6071  -10.3623 C   0  0  0  0  0  0  0  0  0  0  0  0
  -15.8642   18.8187  -11.2460 C   0  0  0  0  0  0  0  0  0  0  0  0
  -15.7719   19.2714  -12.6879 C   0  0  0  0  0  0  0  0  0  0  0  0
  -15.8692   18.4653  -13.6151 O   0  0  0  0  0  0  0  0  0  0  0  0
  -15.7416   20.7761  -12.9244 C   0  0  0  0  0  0  0  0  0  0  0  0
   -8.3624   22.2796  -13.2062 C   0  0  0  0  0  0  0  0  0  0  0  0
  1  2  1  0
  2  3  1  0
  3  4  2  0
  4  5  1  0
  5  6  2  0
  6  7  1  0
  7  8  1  0
  6  9  1  0
  9 10  1  0
 10 11  1  0
 11 12  1  0
 12 13  1  0
 13 14  2  0
 14 15  1  0
 15 16  2  0
 16 17  1  0
 17 18  1  0
 17 19  2  0
 17 20  2  0
 16 21  1  0
 21 22  2  0
 22 23  1  0
 23 24  1  0
 24 25  1  0
 25 26  1  0
 26 27  1  0
 27 28  2  0
 27 29  1  0
  9 30  2  0
 30  3  1  0
 22 13  1  0
 29 23  1  0
M  END
$$$$
