
     RDKit          3D

 22 24  0  0  0  0  0  0  0  0999 V2000
  -63.2377    5.0853   -8.5719 N   0  0  0  0  0  0  0  0  0  0  0  0
  -63.2683    4.4696   -9.9067 C   0  0  0  0  0  0  0  0  0  0  0  0
  -61.8750    4.4754  -10.5184 C   0  0  0  0  0  0  0  0  0  0  0  0
  -61.0999    5.4252  -10.4038 O   0  0  0  0  0  0  0  0  0  0  0  0
  -61.4933    3.3419  -11.3823 C   0  0  0  0  0  0  0  0  0  0  0  0
  -61.3957    3.6287  -12.7484 C   0  0  0  0  0  0  0  0  0  0  0  0
  -61.0079    2.6134  -13.5977 C   0  0  0  0  0  0  0  0  0  0  0  0
  -60.7147    1.3692  -13.1762 N   0  0  0  0  0  0  0  0  0  0  0  0
  -60.7920    1.1390  -11.8414 C   0  0  0  0  0  0  0  0  0  0  0  0
  -61.1706    2.0726  -10.8712 C   0  0  0  0  0  0  0  0  0  0  0  0
  -61.2031    1.7766   -9.4957 N   0  0  0  0  0  0  0  0  0  0  0  0
  -62.4106    1.0537   -9.0658 C   0  0  0  0  0  0  0  0  0  0  0  0
  -62.3022   -0.4548   -9.2601 C   0  0  0  0  0  0  0  0  0  0  0  0
  -60.9448   -1.0099   -8.8530 C   0  0  0  0  0  0  0  0  0  0  0  0
  -60.1208    0.0147   -8.0855 C   0  0  0  0  0  0  0  0  0  0  0  0
  -59.9039    1.3375   -8.8837 C   0  0  0  0  0  0  0  0  0  0  0  0
  -59.1940    2.2573   -7.9620 N   0  0  0  0  0  0  0  0  0  0  0  0
  -59.3443    3.6662   -8.3616 C   0  0  0  0  0  0  0  0  0  0  0  0
  -58.3630    4.6266   -7.6704 C   0  0  0  0  0  0  0  0  0  0  0  0
  -57.8470    4.0555   -6.3595 C   0  0  0  0  0  0  0  0  0  0  0  0
  -57.1961    2.6914   -6.5891 C   0  0  0  0  0  0  0  0  0  0  0  0
  -57.7684    1.9468   -7.8043 C   0  0  0  0  0  0  0  0  0  0  0  0
  1  2  1  0
  2  3  1  0
  3  4  2  0
  3  5  1  0
  5  6  2  0
  6  7  1  0
  7  8  2  0
  8  9  1  0
  9 10  2  0
 10 11  1  0
 11 12  1  0
 12 13  1  0
 13 14  1  0
 14 15  1  0
 15 16  1  0
 16 17  1  0
 17 18  1  0
 18 19  1  0
 19 20  1  0
 20 21  1  0
 21 22  1  0
 10  5  1  0
 16 11  1  0
 22 17  1  0
M  END
$$$$
