
     RDKit          3D

 23 25  0  0  0  0  0  0  0  0999 V2000
  -35.9284  -21.6510   30.6278 N   0  0  0  0  0  0  0  0  0  0  0  0
  -35.5051  -22.3712   31.7132 C   0  0  0  0  0  0  0  0  0  0  0  0
  -35.0026  -23.4820   31.5770 O   0  0  0  0  0  0  0  0  0  0  0  0
  -35.7375  -21.7892   33.0709 C   0  0  0  0  0  0  0  0  0  0  0  0
  -35.8516  -22.7312   34.1174 C   0  0  0  0  0  0  0  0  0  0  0  0
  -36.0839  -22.3209   35.4286 C   0  0  0  0  0  0  0  0  0  0  0  0
  -36.2002  -20.9660   35.6981 C   0  0  0  0  0  0  0  0  0  0  0  0
  -36.4120  -20.5596   36.9570 F   0  0  0  0  0  0  0  0  0  0  0  0
  -36.0757  -20.0143   34.6864 C   0  0  0  0  0  0  0  0  0  0  0  0
  -35.8353  -20.3998   33.3497 C   0  0  0  0  0  0  0  0  0  0  0  0
  -35.6652  -19.4169   32.3335 N   0  0  0  0  0  0  0  0  0  0  0  0
  -36.8849  -18.5600   32.2458 C   0  0  0  0  0  0  0  0  0  0  0  0
  -36.7831  -17.5716   31.0970 C   0  0  0  0  0  0  0  0  0  0  0  0
  -37.7519  -17.3024   30.3854 O   0  0  0  0  0  0  0  0  0  0  0  0
  -35.4837  -16.8126   30.9907 C   0  0  0  0  0  0  0  0  0  0  0  0
  -34.3092  -17.7689   31.1389 C   0  0  0  0  0  0  0  0  0  0  0  0
  -34.3978  -18.6273   32.4396 C   0  0  0  0  0  0  0  0  0  0  0  0
  -33.0480  -19.1908   32.6448 N   0  0  0  0  0  0  0  0  0  0  0  0
  -32.6268  -20.2086   31.6755 C   0  0  0  0  0  0  0  0  0  0  0  0
  -31.1204  -20.4821   31.7965 C   0  0  0  0  0  0  0  0  0  0  0  0
  -30.7185  -20.8506   33.2208 C   0  0  0  0  0  0  0  0  0  0  0  0
  -31.2741  -19.8375   34.2185 C   0  0  0  0  0  0  0  0  0  0  0  0
  -32.7773  -19.6352   34.0127 C   0  0  0  0  0  0  0  0  0  0  0  0
  1  2  1  0
  2  3  2  0
  2  4  1  0
  4  5  2  0
  5  6  1  0
  6  7  2  0
  7  8  1  0
  7  9  1  0
  9 10  2  0
 10 11  1  0
 11 12  1  0
 12 13  1  0
 13 14  2  0
 13 15  1  0
 15 16  1  0
 16 17  1  0
 17 18  1  0
 18 19  1  0
 19 20  1  0
 20 21  1  0
 21 22  1  0
 22 23  1  0
 10  4  1  0
 17 11  1  0
 23 18  1  0
M  END
$$$$
