
     RDKit          3D

 27 30  0  0  0  0  0  0  0  0999 V2000
  -19.2827    6.3972   -2.0324 N   0  0  0  0  0  0  0  0  0  0  0  0
  -19.9947    5.9114   -0.9136 C   0  0  0  0  0  0  0  0  0  0  0  0
  -20.4349    6.7960    0.0680 C   0  0  0  0  0  0  0  0  0  0  0  0
  -21.0345    6.2781    1.2041 C   0  0  0  0  0  0  0  0  0  0  0  0
  -21.2012    4.9594    1.4346 N   0  0  0  0  0  0  0  0  0  0  0  0
  -20.7225    4.1177    0.4884 C   0  0  0  0  0  0  0  0  0  0  0  0
  -20.0880    4.5218   -0.6903 C   0  0  0  0  0  0  0  0  0  0  0  0
  -19.5791    3.6263   -1.6712 N   0  0  0  0  0  0  0  0  0  0  0  0
  -20.6698    2.9155   -2.3796 C   0  0  0  0  0  0  0  0  0  0  0  0
  -20.9023    1.5108   -1.8491 C   0  0  0  0  0  0  0  0  0  0  0  0
  -22.0334    1.0460   -1.7006 O   0  0  0  0  0  0  0  0  0  0  0  0
  -19.6792    0.6724   -1.5592 C   0  0  0  0  0  0  0  0  0  0  0  0
  -18.4037    1.4461   -1.8663 C   0  0  0  0  0  0  0  0  0  0  0  0
  -18.4385    2.8151   -1.1709 C   0  0  0  0  0  0  0  0  0  0  0  0
  -17.1147    3.5876   -1.3493 C   0  0  0  0  0  0  0  0  0  0  0  0
  -16.7145    3.8470   -2.8082 C   0  0  0  0  0  0  0  0  0  0  0  0
  -15.5488    4.8322   -2.9336 C   0  0  0  0  0  0  0  0  0  0  0  0
  -14.3210    4.2241   -2.4436 N   0  0  0  0  0  0  0  0  0  0  0  0
  -13.1803    5.0297   -2.5719 C   0  0  0  0  0  0  0  0  0  0  0  0
  -13.0359    5.8876   -3.6178 N   0  0  0  0  0  0  0  0  0  0  0  0
  -11.9064    6.6251   -3.7058 C   0  0  0  0  0  0  0  0  0  0  0  0
  -10.8504    6.6461   -2.8669 N   0  0  0  0  0  0  0  0  0  0  0  0
  -11.0427    5.7916   -1.8532 C   0  0  0  0  0  0  0  0  0  0  0  0
  -10.1940    5.5457   -0.8136 N   0  0  0  0  0  0  0  0  0  0  0  0
  -10.7880    4.6126   -0.0071 C   0  0  0  0  0  0  0  0  0  0  0  0
  -11.9656    4.2429   -0.4661 N   0  0  0  0  0  0  0  0  0  0  0  0
  -12.1339    4.9714   -1.6297 C   0  0  0  0  0  0  0  0  0  0  0  0
  1  2  1  0
  2  3  2  0
  3  4  1  0
  4  5  2  0
  5  6  1  0
  6  7  2  0
  7  8  1  0
  8  9  1  0
  9 10  1  0
 10 11  2  0
 10 12  1  0
 12 13  1  0
 13 14  1  0
 14 15  1  0
 15 16  1  0
 16 17  1  0
 17 18  1  0
 18 19  1  0
 19 20  2  0
 20 21  1  0
 21 22  2  0
 22 23  1  0
 23 24  1  0
 24 25  1  0
 25 26  2  0
 26 27  1  0
  7  2  1  0
 14  8  1  0
 27 19  1  0
 27 23  2  0
M  END
$$$$
