
     RDKit          3D

 29 32  0  0  0  0  0  0  0  0999 V2000
    1.8384  -12.3080  -22.8243 N   0  0  0  0  0  0  0  0  0  0  0  0
    3.1194  -12.0084  -23.4816 C   0  0  0  0  0  0  0  0  0  0  0  0
    4.0451  -13.2171  -23.3727 C   0  0  0  0  0  0  0  0  0  0  0  0
    3.9971  -13.9969  -22.4146 O   0  0  0  0  0  0  0  0  0  0  0  0
    5.0519  -13.4641  -24.4450 C   0  0  0  0  0  0  0  0  0  0  0  0
    5.3138  -14.8105  -24.7412 C   0  0  0  0  0  0  0  0  0  0  0  0
    6.2607  -15.1082  -25.7039 C   0  0  0  0  0  0  0  0  0  0  0  0
    6.9576  -14.1706  -26.3730 N   0  0  0  0  0  0  0  0  0  0  0  0
    6.7024  -12.8759  -26.0506 C   0  0  0  0  0  0  0  0  0  0  0  0
    5.7560  -12.4423  -25.1078 C   0  0  0  0  0  0  0  0  0  0  0  0
    5.5505  -11.0726  -24.7989 N   0  0  0  0  0  0  0  0  0  0  0  0
    5.0223  -10.3619  -26.0017 C   0  0  0  0  0  0  0  0  0  0  0  0
    4.6758   -8.9254  -25.6469 C   0  0  0  0  0  0  0  0  0  0  0  0
    3.6227   -8.3911  -25.9927 O   0  0  0  0  0  0  0  0  0  0  0  0
    5.7638   -8.1540  -24.9444 C   0  0  0  0  0  0  0  0  0  0  0  0
    6.2989   -8.9662  -23.7720 C   0  0  0  0  0  0  0  0  0  0  0  0
    6.7456  -10.3867  -24.1999 C   0  0  0  0  0  0  0  0  0  0  0  0
    7.3190  -11.1469  -22.9614 C   0  0  0  0  0  0  0  0  0  0  0  0
    8.5187  -10.4810  -22.4303 N   0  0  0  0  0  0  0  0  0  0  0  0
    9.5695  -11.4292  -22.0441 C   0  0  0  0  0  0  0  0  0  0  0  0
   10.2209  -11.9936  -23.2695 C   0  0  0  0  0  0  0  0  0  0  0  0
   10.0713  -13.2775  -23.7608 C   0  0  0  0  0  0  0  0  0  0  0  0
   10.8146  -13.3954  -24.9059 N   0  0  0  0  0  0  0  0  0  0  0  0
   11.4669  -12.2169  -25.1739 C   0  0  0  0  0  0  0  0  0  0  0  0
   12.3274  -11.8825  -26.2286 C   0  0  0  0  0  0  0  0  0  0  0  0
   12.8539  -10.5871  -26.2475 C   0  0  0  0  0  0  0  0  0  0  0  0
   12.5347   -9.6660  -25.2488 C   0  0  0  0  0  0  0  0  0  0  0  0
   11.6686  -10.0180  -24.2042 C   0  0  0  0  0  0  0  0  0  0  0  0
   11.1223  -11.3184  -24.1615 C   0  0  0  0  0  0  0  0  0  0  0  0
  1  2  1  0
  2  3  1  0
  3  4  2  0
  3  5  1  0
  5  6  2  0
  6  7  1  0
  7  8  2  0
  8  9  1  0
  9 10  2  0
 10 11  1  0
 11 12  1  0
 12 13  1  0
 13 14  2  0
 13 15  1  0
 15 16  1  0
 16 17  1  0
 17 18  1  0
 18 19  1  0
 19 20  1  0
 20 21  1  0
 21 22  2  0
 22 23  1  0
 23 24  1  0
 24 25  2  0
 25 26  1  0
 26 27  2  0
 27 28  1  0
 28 29  2  0
 10  5  1  0
 17 11  1  0
 29 21  1  0
 29 24  1  0
M  END
$$$$
