
     RDKit          3D

 24 25  0  0  0  0  0  0  0  0999 V2000
    0.2517   -4.7894   54.3965 C   0  0  0  0  0  0  0  0  0  0  0  0
    1.5618   -4.7571   53.7661 N   0  0  0  0  0  0  0  0  0  0  0  0
    1.7350   -3.5483   52.9574 C   0  0  0  0  0  0  0  0  0  0  0  0
    3.0669   -3.5385   52.2377 C   0  0  0  0  0  0  0  0  0  0  0  0
    3.1361   -3.2008   50.8795 C   0  0  0  0  0  0  0  0  0  0  0  0
    4.3658   -3.1660   50.2177 C   0  0  0  0  0  0  0  0  0  0  0  0
    5.5407   -3.4759   50.9065 C   0  0  0  0  0  0  0  0  0  0  0  0
    6.7638   -3.4181   50.2862 O   0  0  0  0  0  0  0  0  0  0  0  0
    6.8370   -4.3198   49.1797 C   0  0  0  0  0  0  0  0  0  0  0  0
    5.5044   -3.7839   52.2726 C   0  0  0  0  0  0  0  0  0  0  0  0
    6.7673   -4.0953   53.0386 C   0  0  0  0  0  0  0  0  0  0  0  0
    7.3869   -5.4268   52.6417 C   0  0  0  0  0  0  0  0  0  0  0  0
    6.7937   -6.4981   52.7439 O   0  0  0  0  0  0  0  0  0  0  0  0
    8.6779   -5.3289   52.1604 N   0  0  0  0  0  0  0  0  0  0  0  0
    9.4674   -6.5150   51.8859 C   0  0  0  0  0  0  0  0  0  0  0  0
   10.6395   -6.2347   50.9381 C   0  0  0  0  0  0  0  0  0  0  0  0
   11.6531   -5.2707   51.5153 C   0  0  0  0  0  0  0  0  0  0  0  0
   12.5243   -5.6815   52.5345 C   0  0  0  0  0  0  0  0  0  0  0  0
   13.4397   -4.7835   53.0867 C   0  0  0  0  0  0  0  0  0  0  0  0
   13.4850   -3.4745   52.6242 C   0  0  0  0  0  0  0  0  0  0  0  0
   14.3865   -2.6286   53.1986 O   0  0  0  0  0  0  0  0  0  0  0  0
   12.6343   -3.0476   51.6104 C   0  0  0  0  0  0  0  0  0  0  0  0
   11.7193   -3.9469   51.0567 C   0  0  0  0  0  0  0  0  0  0  0  0
    4.2609   -3.8154   52.9254 C   0  0  0  0  0  0  0  0  0  0  0  0
  1  2  1  0
  2  3  1  0
  3  4  1  0
  4  5  2  0
  5  6  1  0
  6  7  2  0
  7  8  1  0
  8  9  1  0
  7 10  1  0
 10 11  1  0
 11 12  1  0
 12 13  2  0
 12 14  1  0
 14 15  1  0
 15 16  1  0
 16 17  1  0
 17 18  2  0
 18 19  1  0
 19 20  2  0
 20 21  1  0
 20 22  1  0
 22 23  2  0
 10 24  2  0
 24  4  1  0
 23 17  1  0
M  END
$$$$
