
     RDKit          3D

 16 17  0  0  0  0  0  0  0  0999 V2000
   17.3766   23.2791  -13.2336 N   0  0  0  0  0  0  0  0  0  0  0  0
   16.4724   23.1472  -12.0914 C   0  0  0  0  0  0  0  0  0  0  0  0
   15.0596   22.8287  -12.5643 C   0  0  0  0  0  0  0  0  0  0  0  0
   14.0977   22.6744  -11.4002 C   0  0  0  0  0  0  0  0  0  0  0  0
   14.4233   22.9351  -10.2426 O   0  0  0  0  0  0  0  0  0  0  0  0
   12.7016   22.2049  -11.7619 C   0  0  0  0  0  0  0  0  0  0  0  0
   11.8082   22.0592  -10.5340 C   0  0  0  0  0  0  0  0  0  0  0  0
   10.4333   21.5959  -10.9002 C   0  0  0  0  0  0  0  0  0  0  0  0
    9.9843   20.2896  -10.9047 C   0  0  0  0  0  0  0  0  0  0  0  0
    8.6746   20.2860  -11.3020 N   0  0  0  0  0  0  0  0  0  0  0  0
    8.2529   21.5680  -11.5650 C   0  0  0  0  0  0  0  0  0  0  0  0
    7.0062   22.0368  -11.9967 C   0  0  0  0  0  0  0  0  0  0  0  0
    6.8602   23.4148  -12.1804 C   0  0  0  0  0  0  0  0  0  0  0  0
    7.9195   24.2864  -11.9401 C   0  0  0  0  0  0  0  0  0  0  0  0
    9.1593   23.8004  -11.5089 C   0  0  0  0  0  0  0  0  0  0  0  0
    9.3340   22.4142  -11.3172 C   0  0  0  0  0  0  0  0  0  0  0  0
  1  2  1  0
  2  3  1  0
  3  4  1  0
  4  5  2  0
  4  6  1  0
  6  7  1  0
  7  8  1  0
  8  9  2  0
  9 10  1  0
 10 11  1  0
 11 12  2  0
 12 13  1  0
 13 14  2  0
 14 15  1  0
 15 16  2  0
 16  8  1  0
 16 11  1  0
M  END
$$$$
