
     RDKit          3D

 17 18  0  0  0  0  0  0  0  0999 V2000
   -4.3510  -20.0272  -52.9164 C   0  0  0  0  0  0  0  0  0  0  0  0
   -5.7505  -20.2171  -52.5794 N   0  0  0  0  0  0  0  0  0  0  0  0
   -6.6027  -19.1085  -52.5122 C   0  0  0  0  0  0  0  0  0  0  0  0
   -6.1560  -17.8017  -52.3199 C   0  0  0  0  0  0  0  0  0  0  0  0
   -7.0570  -16.7388  -52.1932 C   0  0  0  0  0  0  0  0  0  0  0  0
   -8.4355  -16.9656  -52.2261 C   0  0  0  0  0  0  0  0  0  0  0  0
   -9.3793  -15.9758  -52.0838 O   0  0  0  0  0  0  0  0  0  0  0  0
   -8.9230  -14.6579  -51.8188 C   0  0  0  0  0  0  0  0  0  0  0  0
   -8.9294  -18.2842  -52.3824 C   0  0  0  0  0  0  0  0  0  0  0  0
  -10.3237  -18.5268  -52.4114 N   0  0  0  0  0  0  0  0  0  0  0  0
  -10.7980  -19.8126  -51.9003 C   0  0  0  0  0  0  0  0  0  0  0  0
  -12.2989  -19.7037  -51.6477 C   0  0  0  0  0  0  0  0  0  0  0  0
  -13.0406  -19.3912  -52.9379 C   0  0  0  0  0  0  0  0  0  0  0  0
  -12.4551  -18.1757  -53.6233 C   0  0  0  0  0  0  0  0  0  0  0  0
  -13.1835  -17.3901  -54.2349 O   0  0  0  0  0  0  0  0  0  0  0  0
  -10.9352  -18.0814  -53.6822 C   0  0  0  0  0  0  0  0  0  0  0  0
   -7.9905  -19.3294  -52.5033 C   0  0  0  0  0  0  0  0  0  0  0  0
  1  2  1  0
  2  3  1  0
  3  4  2  0
  4  5  1  0
  5  6  2  0
  6  7  1  0
  7  8  1  0
  6  9  1  0
  9 10  1  0
 10 11  1  0
 11 12  1  0
 12 13  1  0
 13 14  1  0
 14 15  2  0
 14 16  1  0
  9 17  2  0
 17  3  1  0
 16 10  1  0
M  END
$$$$
