
     RDKit          3D

 29 32  0  0  0  0  0  0  0  0999 V2000
   -8.1495    0.6320   -6.6296 N   0  0  0  0  0  0  0  0  0  0  0  0
   -6.8685    0.9316   -7.2869 C   0  0  0  0  0  0  0  0  0  0  0  0
   -5.9428   -0.2771   -7.1780 C   0  0  0  0  0  0  0  0  0  0  0  0
   -5.9908   -1.0569   -6.2199 O   0  0  0  0  0  0  0  0  0  0  0  0
   -4.9360   -0.5241   -8.2504 C   0  0  0  0  0  0  0  0  0  0  0  0
   -4.6741   -1.8705   -8.5465 C   0  0  0  0  0  0  0  0  0  0  0  0
   -3.7272   -2.1682   -9.5092 C   0  0  0  0  0  0  0  0  0  0  0  0
   -3.0302   -1.2306  -10.1783 N   0  0  0  0  0  0  0  0  0  0  0  0
   -3.2855    0.0641   -9.8559 C   0  0  0  0  0  0  0  0  0  0  0  0
   -4.2319    0.4976   -8.9132 C   0  0  0  0  0  0  0  0  0  0  0  0
   -4.4374    1.8674   -8.6042 N   0  0  0  0  0  0  0  0  0  0  0  0
   -4.9656    2.5780   -9.8070 C   0  0  0  0  0  0  0  0  0  0  0  0
   -5.3121    4.0146   -9.4522 C   0  0  0  0  0  0  0  0  0  0  0  0
   -6.3651    4.5489   -9.7980 O   0  0  0  0  0  0  0  0  0  0  0  0
   -4.2241    4.7860   -8.7497 C   0  0  0  0  0  0  0  0  0  0  0  0
   -3.6890    3.9738   -7.5773 C   0  0  0  0  0  0  0  0  0  0  0  0
   -3.2423    2.5532   -8.0052 C   0  0  0  0  0  0  0  0  0  0  0  0
   -2.6689    1.7931   -6.7667 C   0  0  0  0  0  0  0  0  0  0  0  0
   -1.4692    2.4590   -6.2356 N   0  0  0  0  0  0  0  0  0  0  0  0
   -0.4184    1.5108   -5.8494 C   0  0  0  0  0  0  0  0  0  0  0  0
    0.2330    0.9464   -7.0748 C   0  0  0  0  0  0  0  0  0  0  0  0
    0.0834   -0.3376   -7.5661 C   0  0  0  0  0  0  0  0  0  0  0  0
    0.8267   -0.4554   -8.7112 N   0  0  0  0  0  0  0  0  0  0  0  0
    1.4790    0.7231   -8.9792 C   0  0  0  0  0  0  0  0  0  0  0  0
    2.3395    1.0575  -10.0339 C   0  0  0  0  0  0  0  0  0  0  0  0
    2.8660    2.3529  -10.0528 C   0  0  0  0  0  0  0  0  0  0  0  0
    2.5469    3.2740   -9.0541 C   0  0  0  0  0  0  0  0  0  0  0  0
    1.6807    2.9220   -8.0095 C   0  0  0  0  0  0  0  0  0  0  0  0
    1.1344    1.6216   -7.9668 C   0  0  0  0  0  0  0  0  0  0  0  0
  1  2  1  0
  2  3  1  0
  3  4  2  0
  3  5  1  0
  5  6  2  0
  6  7  1  0
  7  8  2  0
  8  9  1  0
  9 10  2  0
 10 11  1  0
 11 12  1  0
 12 13  1  0
 13 14  2  0
 13 15  1  0
 15 16  1  0
 16 17  1  0
 17 18  1  0
 18 19  1  0
 19 20  1  0
 20 21  1  0
 21 22  2  0
 22 23  1  0
 23 24  1  0
 24 25  2  0
 25 26  1  0
 26 27  2  0
 27 28  1  0
 28 29  2  0
 10  5  1  0
 17 11  1  0
 29 21  1  0
 29 24  1  0
M  END
$$$$
