
     RDKit          3D

 27 30  0  0  0  0  0  0  0  0999 V2000
   19.2550   12.1783  -38.0371 N   0  0  0  0  0  0  0  0  0  0  0  0
   18.1577   11.8264  -37.2100 C   0  0  0  0  0  0  0  0  0  0  0  0
   17.4478   12.8165  -36.5380 C   0  0  0  0  0  0  0  0  0  0  0  0
   16.4091   12.4257  -35.7097 C   0  0  0  0  0  0  0  0  0  0  0  0
   16.0158   11.1419  -35.5362 N   0  0  0  0  0  0  0  0  0  0  0  0
   16.6908   10.2064  -36.2457 C   0  0  0  0  0  0  0  0  0  0  0  0
   17.7679   10.4760  -37.0948 C   0  0  0  0  0  0  0  0  0  0  0  0
   18.4692    9.4990  -37.8325 N   0  0  0  0  0  0  0  0  0  0  0  0
   17.8147    9.1987  -39.1250 C   0  0  0  0  0  0  0  0  0  0  0  0
   16.9442    7.9555  -39.0440 C   0  0  0  0  0  0  0  0  0  0  0  0
   15.8974    7.8418  -39.6821 O   0  0  0  0  0  0  0  0  0  0  0  0
   17.4414    6.8276  -38.1644 C   0  0  0  0  0  0  0  0  0  0  0  0
   18.8979    7.0520  -37.7826 C   0  0  0  0  0  0  0  0  0  0  0  0
   19.0720    8.3959  -37.0515 C   0  0  0  0  0  0  0  0  0  0  0  0
   20.5586    8.7545  -36.8318 C   0  0  0  0  0  0  0  0  0  0  0  0
   21.3136    7.7616  -35.9410 C   0  0  0  0  0  0  0  0  0  0  0  0
   22.7413    8.0656  -35.8702 N   0  0  0  0  0  0  0  0  0  0  0  0
   23.0602    9.2334  -35.0483 C   0  0  0  0  0  0  0  0  0  0  0  0
   24.5156    9.5687  -35.1549 C   0  0  0  0  0  0  0  0  0  0  0  0
   25.0881   10.3264  -36.0739 N   0  0  0  0  0  0  0  0  0  0  0  0
   26.4277   10.3291  -35.7745 C   0  0  0  0  0  0  0  0  0  0  0  0
   27.4929   10.9625  -36.4330 C   0  0  0  0  0  0  0  0  0  0  0  0
   28.7874   10.8093  -35.9188 C   0  0  0  0  0  0  0  0  0  0  0  0
   29.0144   10.0433  -34.7714 C   0  0  0  0  0  0  0  0  0  0  0  0
   27.9618    9.4029  -34.0996 C   0  0  0  0  0  0  0  0  0  0  0  0
   26.6831    9.5706  -34.6367 C   0  0  0  0  0  0  0  0  0  0  0  0
   25.4499    9.0982  -34.2612 N   0  0  0  0  0  0  0  0  0  0  0  0
  1  2  1  0
  2  3  2  0
  3  4  1  0
  4  5  2  0
  5  6  1  0
  6  7  2  0
  7  8  1  0
  8  9  1  0
  9 10  1  0
 10 11  2  0
 10 12  1  0
 12 13  1  0
 13 14  1  0
 14 15  1  0
 15 16  1  0
 16 17  1  0
 17 18  1  0
 18 19  1  0
 19 20  2  0
 20 21  1  0
 21 22  2  0
 22 23  1  0
 23 24  2  0
 24 25  1  0
 25 26  2  0
 26 27  1  0
  7  2  1  0
 14  8  1  0
 27 19  1  0
 26 21  1  0
M  END
$$$$
