
     RDKit          3D

 15 16  0  0  0  0  0  0  0  0999 V2000
    3.1169   31.1383    5.2377 N   0  0  0  0  0  0  0  0  0  0  0  0
    1.9821   30.7807    4.3950 C   0  0  0  0  0  0  0  0  0  0  0  0
    2.0538   29.3133    3.9724 C   0  0  0  0  0  0  0  0  0  0  0  0
    0.9163   28.9198    3.0321 C   0  0  0  0  0  0  0  0  0  0  0  0
   -0.4176   28.8556    3.7575 C   0  0  0  0  0  0  0  0  0  0  0  0
   -0.6164   27.9362    4.5544 O   0  0  0  0  0  0  0  0  0  0  0  0
   -1.4308   29.8899    3.5177 C   0  0  0  0  0  0  0  0  0  0  0  0
   -1.3024   31.0079    2.7100 C   0  0  0  0  0  0  0  0  0  0  0  0
   -2.4693   31.7244    2.7642 N   0  0  0  0  0  0  0  0  0  0  0  0
   -3.3713   31.1027    3.5916 C   0  0  0  0  0  0  0  0  0  0  0  0
   -4.6761   31.4736    3.9397 C   0  0  0  0  0  0  0  0  0  0  0  0
   -5.3751   30.6419    4.8184 C   0  0  0  0  0  0  0  0  0  0  0  0
   -4.7900   29.4864    5.3274 C   0  0  0  0  0  0  0  0  0  0  0  0
   -3.4845   29.1317    4.9683 C   0  0  0  0  0  0  0  0  0  0  0  0
   -2.7525   29.9515    4.0818 C   0  0  0  0  0  0  0  0  0  0  0  0
  1  2  1  0
  2  3  1  0
  3  4  1  0
  4  5  1  0
  5  6  2  0
  5  7  1  0
  7  8  2  0
  8  9  1  0
  9 10  1  0
 10 11  2  0
 11 12  1  0
 12 13  2  0
 13 14  1  0
 14 15  2  0
 15  7  1  0
 15 10  1  0
M  END
$$$$
