
     RDKit          3D

 29 31  0  0  0  0  0  0  0  0999 V2000
   -3.3822    8.3754   25.7902 N   0  0  0  0  0  0  0  0  0  0  0  0
   -2.3475    7.3725   25.5409 C   0  0  0  0  0  0  0  0  0  0  0  0
   -2.6424    6.5493   24.3048 C   0  0  0  0  0  0  0  0  0  0  0  0
   -3.6079    5.5256   24.4070 C   0  0  0  0  0  0  0  0  0  0  0  0
   -3.9137    4.7179   23.3157 C   0  0  0  0  0  0  0  0  0  0  0  0
   -3.2493    4.9285   22.1106 C   0  0  0  0  0  0  0  0  0  0  0  0
   -3.6615    3.9377   20.7087 S   0  0  0  0  0  0  0  0  0  0  0  0
   -2.6918    2.5844   20.9420 N   0  0  0  0  0  0  0  0  0  0  0  0
   -5.0235    3.4740   20.8348 O   0  0  0  0  0  0  0  0  0  0  0  0
   -3.1633    4.5672   19.5075 O   0  0  0  0  0  0  0  0  0  0  0  0
   -2.3000    5.9476   21.9832 C   0  0  0  0  0  0  0  0  0  0  0  0
   -1.9734    6.7684   23.0745 C   0  0  0  0  0  0  0  0  0  0  0  0
   -1.0323    7.8029   22.9556 N   0  0  0  0  0  0  0  0  0  0  0  0
   -1.6641    9.1311   22.8091 C   0  0  0  0  0  0  0  0  0  0  0  0
   -1.3743    9.7161   21.4321 C   0  0  0  0  0  0  0  0  0  0  0  0
    0.1244    9.8893   21.2011 C   0  0  0  0  0  0  0  0  0  0  0  0
    0.9663    8.8957   22.0035 C   0  0  0  0  0  0  0  0  0  0  0  0
    0.2312    7.5601   22.2120 C   0  0  0  0  0  0  0  0  0  0  0  0
    1.1192    6.5555   22.9942 C   0  0  0  0  0  0  0  0  0  0  0  0
    2.2305    6.0286   22.2122 N   0  0  0  0  0  0  0  0  0  0  0  0
    3.5020    6.5518   22.3036 C   0  0  0  0  0  0  0  0  0  0  0  0
    3.7999    7.4894   23.0337 O   0  0  0  0  0  0  0  0  0  0  0  0
    4.5339    5.9419   21.4201 C   0  0  0  0  0  0  0  0  0  0  0  0
    4.4750    4.5992   21.0222 C   0  0  0  0  0  0  0  0  0  0  0  0
    5.4705    4.0718   20.1932 C   0  0  0  0  0  0  0  0  0  0  0  0
    6.5252    4.8809   19.7703 C   0  0  0  0  0  0  0  0  0  0  0  0
    7.7469    4.2263   18.7514 Cl  0  0  0  0  0  0  0  0  0  0  0  0
    6.6000    6.2125   20.1743 C   0  0  0  0  0  0  0  0  0  0  0  0
    5.6071    6.7417   21.0030 C   0  0  0  0  0  0  0  0  0  0  0  0
  1  2  1  0
  2  3  1  0
  3  4  2  0
  4  5  1  0
  5  6  2  0
  6  7  1  0
  7  8  1  0
  7  9  2  0
  7 10  2  0
  6 11  1  0
 11 12  2  0
 12 13  1  0
 13 14  1  0
 14 15  1  0
 15 16  1  0
 16 17  1  0
 17 18  1  0
 18 19  1  0
 19 20  1  0
 20 21  1  0
 21 22  2  0
 21 23  1  0
 23 24  2  0
 24 25  1  0
 25 26  2  0
 26 27  1  0
 26 28  1  0
 28 29  2  0
 12  3  1  0
 18 13  1  0
 29 23  1  0
M  END
$$$$
