
     RDKit          3D

 19 20  0  0  0  0  0  0  0  0999 V2000
   12.0857    1.1922  -15.3538 N   0  0  0  0  0  0  0  0  0  0  0  0
   12.5927    0.6746  -16.6192 C   0  0  0  0  0  0  0  0  0  0  0  0
   12.6228    1.7535  -17.6914 C   0  0  0  0  0  0  0  0  0  0  0  0
   11.2307    2.1340  -18.1516 C   0  0  0  0  0  0  0  0  0  0  0  0
   10.4739    1.3138  -18.6753 O   0  0  0  0  0  0  0  0  0  0  0  0
   10.8020    3.5610  -17.9618 C   0  0  0  0  0  0  0  0  0  0  0  0
   10.3663    3.8681  -16.5561 C   0  0  0  0  0  0  0  0  0  0  0  0
   11.1598    4.3441  -15.7411 O   0  0  0  0  0  0  0  0  0  0  0  0
    8.9361    3.5522  -16.1794 C   0  0  0  0  0  0  0  0  0  0  0  0
    8.8441    2.2463  -15.4043 C   0  0  0  0  0  0  0  0  0  0  0  0
    7.4238    1.8599  -15.1396 C   0  0  0  0  0  0  0  0  0  0  0  0
    6.6771    2.1798  -14.0228 C   0  0  0  0  0  0  0  0  0  0  0  0
    5.4269    1.6435  -14.1745 N   0  0  0  0  0  0  0  0  0  0  0  0
    5.3351    0.9785  -15.3747 C   0  0  0  0  0  0  0  0  0  0  0  0
    4.2582    0.2895  -15.9456 C   0  0  0  0  0  0  0  0  0  0  0  0
    4.4574   -0.3008  -17.1972 C   0  0  0  0  0  0  0  0  0  0  0  0
    5.6846   -0.2047  -17.8488 C   0  0  0  0  0  0  0  0  0  0  0  0
    6.7508    0.4881  -17.2639 C   0  0  0  0  0  0  0  0  0  0  0  0
    6.5757    1.0930  -16.0021 C   0  0  0  0  0  0  0  0  0  0  0  0
  1  2  1  0
  2  3  1  0
  3  4  1  0
  4  5  2  0
  4  6  1  0
  6  7  1  0
  7  8  2  0
  7  9  1  0
  9 10  1  0
 10 11  1  0
 11 12  2  0
 12 13  1  0
 13 14  1  0
 14 15  2  0
 15 16  1  0
 16 17  2  0
 17 18  1  0
 18 19  2  0
 19 11  1  0
 19 14  1  0
M  END
$$$$
