
     RDKit          3D

 18 19  0  0  0  0  0  0  0  0999 V2000
   -4.9292   -7.2821  -12.8818 N   0  0  0  0  0  0  0  0  0  0  0  0
   -5.7499   -8.3243  -13.4880 C   0  0  0  0  0  0  0  0  0  0  0  0
   -5.6472   -9.6158  -12.6751 C   0  0  0  0  0  0  0  0  0  0  0  0
   -6.3941  -10.7790  -13.3268 C   0  0  0  0  0  0  0  0  0  0  0  0
   -7.9090  -10.6665  -13.2550 C   0  0  0  0  0  0  0  0  0  0  0  0
   -8.4777   -9.7573  -12.6521 O   0  0  0  0  0  0  0  0  0  0  0  0
   -8.6841  -11.7648  -13.9704 C   0  0  0  0  0  0  0  0  0  0  0  0
  -10.1976  -11.5979  -13.8523 C   0  0  0  0  0  0  0  0  0  0  0  0
  -10.7261  -10.4574  -14.7273 C   0  0  0  0  0  0  0  0  0  0  0  0
  -12.1544  -10.1689  -14.4241 C   0  0  0  0  0  0  0  0  0  0  0  0
  -13.2092  -10.6460  -15.0512 N   0  0  0  0  0  0  0  0  0  0  0  0
  -14.2950  -10.1001  -14.4097 C   0  0  0  0  0  0  0  0  0  0  0  0
  -15.6642  -10.2672  -14.6622 C   0  0  0  0  0  0  0  0  0  0  0  0
  -16.5848   -9.5911  -13.8510 C   0  0  0  0  0  0  0  0  0  0  0  0
  -16.1506   -8.7662  -12.8100 C   0  0  0  0  0  0  0  0  0  0  0  0
  -14.7879   -8.5871  -12.5428 C   0  0  0  0  0  0  0  0  0  0  0  0
  -13.8933   -9.2724  -13.3673 C   0  0  0  0  0  0  0  0  0  0  0  0
  -12.5244   -9.3329  -13.3981 N   0  0  0  0  0  0  0  0  0  0  0  0
  1  2  1  0
  2  3  1  0
  3  4  1  0
  4  5  1  0
  5  6  2  0
  5  7  1  0
  7  8  1  0
  8  9  1  0
  9 10  1  0
 10 11  2  0
 11 12  1  0
 12 13  2  0
 13 14  1  0
 14 15  2  0
 15 16  1  0
 16 17  2  0
 17 18  1  0
 18 10  1  0
 17 12  1  0
M  END
$$$$
