
     RDKit          3D

 22 23  0  0  0  0  0  0  0  0999 V2000
   40.5460   14.0436  -20.6088 N   0  0  0  0  0  0  0  0  0  0  0  0
   39.6160   14.1939  -21.7235 C   0  0  0  0  0  0  0  0  0  0  0  0
   38.5278   15.2065  -21.3686 C   0  0  0  0  0  0  0  0  0  0  0  0
   37.5734   15.5058  -22.5301 C   0  0  0  0  0  0  0  0  0  0  0  0
   36.7090   14.3054  -22.9303 C   0  0  0  0  0  0  0  0  0  0  0  0
   35.7393   14.6159  -24.0785 C   0  0  0  0  0  0  0  0  0  0  0  0
   34.6390   15.5931  -23.7173 C   0  0  0  0  0  0  0  0  0  0  0  0
   34.7482   16.9242  -24.1637 C   0  0  0  0  0  0  0  0  0  0  0  0
   33.7775   17.8691  -23.8386 C   0  0  0  0  0  0  0  0  0  0  0  0
   32.6914   17.4861  -23.0551 C   0  0  0  0  0  0  0  0  0  0  0  0
   31.4349   18.6626  -22.6654 S   0  0  0  0  0  0  0  0  0  0  0  0
   31.9935   19.3029  -21.2174 N   0  0  0  0  0  0  0  0  0  0  0  0
   31.4803   19.7456  -23.6202 O   0  0  0  0  0  0  0  0  0  0  0  0
   30.2099   17.9678  -22.3436 O   0  0  0  0  0  0  0  0  0  0  0  0
   32.5573   16.1669  -22.6150 C   0  0  0  0  0  0  0  0  0  0  0  0
   33.5286   15.2052  -22.9336 C   0  0  0  0  0  0  0  0  0  0  0  0
   33.3945   13.8664  -22.5189 N   0  0  0  0  0  0  0  0  0  0  0  0
   33.2404   13.6629  -21.0665 C   0  0  0  0  0  0  0  0  0  0  0  0
   31.8853   13.0558  -20.7150 C   0  0  0  0  0  0  0  0  0  0  0  0
   31.6482   11.7338  -21.4461 C   0  0  0  0  0  0  0  0  0  0  0  0
   32.2872   11.7027  -22.8354 C   0  0  0  0  0  0  0  0  0  0  0  0
   32.4818   13.1088  -23.3940 C   0  0  0  0  0  0  0  0  0  0  0  0
  1  2  1  0
  2  3  1  0
  3  4  1  0
  4  5  1  0
  5  6  1  0
  6  7  1  0
  7  8  2  0
  8  9  1  0
  9 10  2  0
 10 11  1  0
 11 12  1  0
 11 13  2  0
 11 14  2  0
 10 15  1  0
 15 16  2  0
 16 17  1  0
 17 18  1  0
 18 19  1  0
 19 20  1  0
 20 21  1  0
 21 22  1  0
 16  7  1  0
 22 17  1  0
M  END
$$$$
