
     RDKit          3D

 19 20  0  0  0  0  0  0  0  0999 V2000
  -43.2403  -17.1688   -4.5101 C   0  0  0  0  0  0  0  0  0  0  0  0
  -44.6857  -17.0047   -4.4927 N   0  0  0  0  0  0  0  0  0  0  0  0
  -45.3734  -18.2568   -4.8505 C   0  0  0  0  0  0  0  0  0  0  0  0
  -46.7855  -17.9321   -5.3461 C   0  0  0  0  0  0  0  0  0  0  0  0
  -47.0494  -16.8571   -5.8903 O   0  0  0  0  0  0  0  0  0  0  0  0
  -47.8515  -18.9753   -5.2348 C   0  0  0  0  0  0  0  0  0  0  0  0
  -47.5682  -20.3027   -4.9095 C   0  0  0  0  0  0  0  0  0  0  0  0
  -48.6047  -21.2303   -4.8475 C   0  0  0  0  0  0  0  0  0  0  0  0
  -49.9192  -20.8332   -5.1225 C   0  0  0  0  0  0  0  0  0  0  0  0
  -50.8854  -21.8139   -5.0872 O   0  0  0  0  0  0  0  0  0  0  0  0
  -50.9031  -22.5176   -6.3335 C   0  0  0  0  0  0  0  0  0  0  0  0
  -50.2589  -19.4934   -5.4257 C   0  0  0  0  0  0  0  0  0  0  0  0
  -51.5768  -19.0914   -5.6686 N   0  0  0  0  0  0  0  0  0  0  0  0
  -52.6087  -19.6047   -4.7454 C   0  0  0  0  0  0  0  0  0  0  0  0
  -53.7069  -18.5678   -4.4824 C   0  0  0  0  0  0  0  0  0  0  0  0
  -53.1043  -17.1917   -4.2153 C   0  0  0  0  0  0  0  0  0  0  0  0
  -52.2050  -16.7255   -5.3653 C   0  0  0  0  0  0  0  0  0  0  0  0
  -51.8873  -17.8404   -6.3623 C   0  0  0  0  0  0  0  0  0  0  0  0
  -49.1826  -18.5903   -5.4914 C   0  0  0  0  0  0  0  0  0  0  0  0
  1  2  1  0
  2  3  1  0
  3  4  1  0
  4  5  2  0
  4  6  1  0
  6  7  2  0
  7  8  1  0
  8  9  2  0
  9 10  1  0
 10 11  1  0
  9 12  1  0
 12 13  1  0
 13 14  1  0
 14 15  1  0
 15 16  1  0
 16 17  1  0
 17 18  1  0
 12 19  2  0
 19  6  1  0
 18 13  1  0
M  END
$$$$
