
     RDKit          3D

 19 20  0  0  0  0  0  0  0  0999 V2000
   44.3761   11.6917    3.2862 C   0  0  0  0  0  0  0  0  0  0  0  0
   42.9307   11.8558    3.3036 N   0  0  0  0  0  0  0  0  0  0  0  0
   42.2430   10.6038    2.9458 C   0  0  0  0  0  0  0  0  0  0  0  0
   40.8309   10.9285    2.4502 C   0  0  0  0  0  0  0  0  0  0  0  0
   40.5670   12.0035    1.9060 O   0  0  0  0  0  0  0  0  0  0  0  0
   39.7649    9.8853    2.5615 C   0  0  0  0  0  0  0  0  0  0  0  0
   40.0481    8.5578    2.8868 C   0  0  0  0  0  0  0  0  0  0  0  0
   39.0117    7.6302    2.9487 C   0  0  0  0  0  0  0  0  0  0  0  0
   37.6972    8.0273    2.6738 C   0  0  0  0  0  0  0  0  0  0  0  0
   36.7310    7.0466    2.7091 O   0  0  0  0  0  0  0  0  0  0  0  0
   36.7133    6.3429    1.4627 C   0  0  0  0  0  0  0  0  0  0  0  0
   37.3575    9.3671    2.3706 C   0  0  0  0  0  0  0  0  0  0  0  0
   36.0396    9.7691    2.1277 N   0  0  0  0  0  0  0  0  0  0  0  0
   35.0077    9.2558    3.0509 C   0  0  0  0  0  0  0  0  0  0  0  0
   33.9095   10.2927    3.3139 C   0  0  0  0  0  0  0  0  0  0  0  0
   34.5121   11.6688    3.5809 C   0  0  0  0  0  0  0  0  0  0  0  0
   35.4114   12.1350    2.4309 C   0  0  0  0  0  0  0  0  0  0  0  0
   35.7291   11.0201    1.4340 C   0  0  0  0  0  0  0  0  0  0  0  0
   38.4338   10.2702    2.3048 C   0  0  0  0  0  0  0  0  0  0  0  0
  1  2  1  0
  2  3  1  0
  3  4  1  0
  4  5  2  0
  4  6  1  0
  6  7  2  0
  7  8  1  0
  8  9  2  0
  9 10  1  0
 10 11  1  0
  9 12  1  0
 12 13  1  0
 13 14  1  0
 14 15  1  0
 15 16  1  0
 16 17  1  0
 17 18  1  0
 12 19  2  0
 19  6  1  0
 18 13  1  0
M  END
$$$$
