
     RDKit          3D

 32 35  0  0  0  0  0  0  0  0999 V2000
   -2.0781    4.5123    0.2090 N   0  0  0  0  0  0  0  0  0  0  0  0
   -3.4633    4.6894   -0.7433 S   0  0  0  0  0  0  0  0  0  0  0  0
   -3.7267    3.3593   -1.2442 O   0  0  0  0  0  0  0  0  0  0  0  0
   -3.1491    5.8142   -1.5953 O   0  0  0  0  0  0  0  0  0  0  0  0
   -4.7324    5.1398    0.3999 C   0  0  0  0  0  0  0  0  0  0  0  0
   -4.4881    5.0470    1.7744 C   0  0  0  0  0  0  0  0  0  0  0  0
   -5.4955    5.4248    2.6423 C   0  0  0  0  0  0  0  0  0  0  0  0
   -6.6975    5.8796    2.2361 N   0  0  0  0  0  0  0  0  0  0  0  0
   -6.9015    5.9547    0.8989 C   0  0  0  0  0  0  0  0  0  0  0  0
   -5.9711    5.5892   -0.0825 C   0  0  0  0  0  0  0  0  0  0  0  0
   -6.2342    5.6966   -1.4616 N   0  0  0  0  0  0  0  0  0  0  0  0
   -6.3043    7.1481   -1.8209 C   0  0  0  0  0  0  0  0  0  0  0  0
   -6.5169    7.3338   -3.3124 C   0  0  0  0  0  0  0  0  0  0  0  0
   -6.7023    8.4439   -3.8154 O   0  0  0  0  0  0  0  0  0  0  0  0
   -6.4295    6.0933   -4.1527 C   0  0  0  0  0  0  0  0  0  0  0  0
   -7.2938    4.9790   -3.5698 C   0  0  0  0  0  0  0  0  0  0  0  0
   -7.3782    4.9141   -2.0141 C   0  0  0  0  0  0  0  0  0  0  0  0
   -7.3952    3.4127   -1.6288 C   0  0  0  0  0  0  0  0  0  0  0  0
   -8.0374    3.0413   -0.2885 C   0  0  0  0  0  0  0  0  0  0  0  0
   -9.3402    3.6786   -0.1313 N   0  0  0  0  0  0  0  0  0  0  0  0
  -10.5304    2.9472   -0.3545 C   0  0  0  0  0  0  0  0  0  0  0  0
  -10.6103    1.8891   -1.2623 C   0  0  0  0  0  0  0  0  0  0  0  0
  -11.8146    1.2207   -1.4103 C   0  0  0  0  0  0  0  0  0  0  0  0
  -12.9378    1.5378   -0.7413 N   0  0  0  0  0  0  0  0  0  0  0  0
  -12.8540    2.5990    0.0984 C   0  0  0  0  0  0  0  0  0  0  0  0
  -11.7104    3.3708    0.3197 C   0  0  0  0  0  0  0  0  0  0  0  0
  -11.6634    4.4913    1.1704 N   0  0  0  0  0  0  0  0  0  0  0  0
  -11.5119    5.7875    0.4825 C   0  0  0  0  0  0  0  0  0  0  0  0
  -12.8688    6.4443    0.2296 C   0  0  0  0  0  0  0  0  0  0  0  0
  -13.6581    6.5808    1.5268 C   0  0  0  0  0  0  0  0  0  0  0  0
  -13.8198    5.2219    2.1995 C   0  0  0  0  0  0  0  0  0  0  0  0
  -12.4782    4.5120    2.3917 C   0  0  0  0  0  0  0  0  0  0  0  0
  1  2  1  0
  2  3  2  0
  2  4  2  0
  2  5  1  0
  5  6  2  0
  6  7  1  0
  7  8  2  0
  8  9  1  0
  9 10  2  0
 10 11  1  0
 11 12  1  0
 12 13  1  0
 13 14  2  0
 13 15  1  0
 15 16  1  0
 16 17  1  0
 17 18  1  0
 18 19  1  0
 19 20  1  0
 20 21  1  0
 21 22  2  0
 22 23  1  0
 23 24  2  0
 24 25  1  0
 25 26  2  0
 26 27  1  0
 27 28  1  0
 28 29  1  0
 29 30  1  0
 30 31  1  0
 31 32  1  0
 10  5  1  0
 17 11  1  0
 26 21  1  0
 32 27  1  0
M  END
$$$$
