
     RDKit          3D

 30 33  0  0  0  0  0  0  0  0999 V2000
  -15.9153   -2.3334   11.5889 N   0  0  0  0  0  0  0  0  0  0  0  0
  -15.0643   -1.7787   10.6742 C   0  0  0  0  0  0  0  0  0  0  0  0
  -14.6585   -2.4000    9.7038 O   0  0  0  0  0  0  0  0  0  0  0  0
  -14.6691   -0.3772   10.9291 C   0  0  0  0  0  0  0  0  0  0  0  0
  -15.7153    0.5671   10.9169 C   0  0  0  0  0  0  0  0  0  0  0  0
  -15.4353    1.9244   11.0411 C   0  0  0  0  0  0  0  0  0  0  0  0
  -14.1161    2.3295   11.1655 C   0  0  0  0  0  0  0  0  0  0  0  0
  -13.8360    3.6341   11.2816 F   0  0  0  0  0  0  0  0  0  0  0  0
  -13.0764    1.4022   11.1786 C   0  0  0  0  0  0  0  0  0  0  0  0
  -13.3200    0.0187   11.0723 C   0  0  0  0  0  0  0  0  0  0  0  0
  -12.2173   -0.8316   11.1554 N   0  0  0  0  0  0  0  0  0  0  0  0
  -12.2661   -2.0400   11.9935 C   0  0  0  0  0  0  0  0  0  0  0  0
  -12.1771   -3.3305   11.1970 C   0  0  0  0  0  0  0  0  0  0  0  0
  -12.6766   -4.3766   11.6222 O   0  0  0  0  0  0  0  0  0  0  0  0
  -11.2770   -3.3336    9.9819 C   0  0  0  0  0  0  0  0  0  0  0  0
  -11.3947   -2.0404    9.1878 C   0  0  0  0  0  0  0  0  0  0  0  0
  -11.2371   -0.7820   10.0537 C   0  0  0  0  0  0  0  0  0  0  0  0
   -9.8255   -0.5809   10.6437 C   0  0  0  0  0  0  0  0  0  0  0  0
   -8.7525   -0.3551    9.5721 C   0  0  0  0  0  0  0  0  0  0  0  0
   -7.3947    0.0372   10.1631 C   0  0  0  0  0  0  0  0  0  0  0  0
   -6.8067   -1.0904   10.8664 N   0  0  0  0  0  0  0  0  0  0  0  0
   -5.5363   -0.8475   11.4072 C   0  0  0  0  0  0  0  0  0  0  0  0
   -4.6617    0.0006   10.8025 N   0  0  0  0  0  0  0  0  0  0  0  0
   -3.4398    0.1791   11.3531 C   0  0  0  0  0  0  0  0  0  0  0  0
   -2.9359   -0.3755   12.4746 N   0  0  0  0  0  0  0  0  0  0  0  0
   -3.8363   -1.1927   13.0367 C   0  0  0  0  0  0  0  0  0  0  0  0
   -3.6835   -1.9239   14.1784 N   0  0  0  0  0  0  0  0  0  0  0  0
   -4.8511   -2.6064   14.3912 C   0  0  0  0  0  0  0  0  0  0  0  0
   -5.7442   -2.3584   13.4557 N   0  0  0  0  0  0  0  0  0  0  0  0
   -5.1144   -1.4803   12.5932 C   0  0  0  0  0  0  0  0  0  0  0  0
  1  2  1  0
  2  3  2  0
  2  4  1  0
  4  5  2  0
  5  6  1  0
  6  7  2  0
  7  8  1  0
  7  9  1  0
  9 10  2  0
 10 11  1  0
 11 12  1  0
 12 13  1  0
 13 14  2  0
 13 15  1  0
 15 16  1  0
 16 17  1  0
 17 18  1  0
 18 19  1  0
 19 20  1  0
 20 21  1  0
 21 22  1  0
 22 23  2  0
 23 24  1  0
 24 25  2  0
 25 26  1  0
 26 27  1  0
 27 28  1  0
 28 29  2  0
 29 30  1  0
 10  4  1  0
 17 11  1  0
 30 22  1  0
 30 26  2  0
M  END
$$$$
