
     RDKit          3D

 15 16  0  0  0  0  0  0  0  0999 V2000
  -19.9065   18.1162   16.5960 N   0  0  0  0  0  0  0  0  0  0  0  0
  -21.0413   17.7586   15.7533 C   0  0  0  0  0  0  0  0  0  0  0  0
  -20.9696   16.2912   15.3307 C   0  0  0  0  0  0  0  0  0  0  0  0
  -22.1072   15.8977   14.3903 C   0  0  0  0  0  0  0  0  0  0  0  0
  -23.4410   15.8335   15.1158 C   0  0  0  0  0  0  0  0  0  0  0  0
  -23.6398   14.9141   15.9127 O   0  0  0  0  0  0  0  0  0  0  0  0
  -24.4542   16.8678   14.8760 C   0  0  0  0  0  0  0  0  0  0  0  0
  -24.3258   17.9858   14.0683 C   0  0  0  0  0  0  0  0  0  0  0  0
  -25.4927   18.7023   14.1225 N   0  0  0  0  0  0  0  0  0  0  0  0
  -26.3947   18.0806   14.9499 C   0  0  0  0  0  0  0  0  0  0  0  0
  -27.6995   18.4515   15.2980 C   0  0  0  0  0  0  0  0  0  0  0  0
  -28.3985   17.6198   16.1767 C   0  0  0  0  0  0  0  0  0  0  0  0
  -27.8134   16.4643   16.6857 C   0  0  0  0  0  0  0  0  0  0  0  0
  -26.5080   16.1096   16.3266 C   0  0  0  0  0  0  0  0  0  0  0  0
  -25.7760   16.9294   15.4401 C   0  0  0  0  0  0  0  0  0  0  0  0
  1  2  1  0
  2  3  1  0
  3  4  1  0
  4  5  1  0
  5  6  2  0
  5  7  1  0
  7  8  2  0
  8  9  1  0
  9 10  1  0
 10 11  2  0
 11 12  1  0
 12 13  2  0
 13 14  1  0
 14 15  2  0
 15  7  1  0
 15 10  1  0
M  END
$$$$
