
     RDKit          3D

 19 20  0  0  0  0  0  0  0  0999 V2000
   -4.6396    8.2909   16.5252 N   0  0  0  0  0  0  0  0  0  0  0  0
   -4.1325    7.7733   15.2598 C   0  0  0  0  0  0  0  0  0  0  0  0
   -4.1025    8.8522   14.1876 C   0  0  0  0  0  0  0  0  0  0  0  0
   -5.4946    9.2327   13.7274 C   0  0  0  0  0  0  0  0  0  0  0  0
   -6.2513    8.4125   13.2037 O   0  0  0  0  0  0  0  0  0  0  0  0
   -5.9232   10.6597   13.9172 C   0  0  0  0  0  0  0  0  0  0  0  0
   -6.3589   10.9668   15.3229 C   0  0  0  0  0  0  0  0  0  0  0  0
   -5.5655   11.4428   16.1379 O   0  0  0  0  0  0  0  0  0  0  0  0
   -7.7892   10.6509   15.6996 C   0  0  0  0  0  0  0  0  0  0  0  0
   -7.8812    9.3451   16.4747 C   0  0  0  0  0  0  0  0  0  0  0  0
   -9.3015    8.9586   16.7394 C   0  0  0  0  0  0  0  0  0  0  0  0
  -10.0481    9.2785   17.8562 C   0  0  0  0  0  0  0  0  0  0  0  0
  -11.2984    8.7422   17.7045 N   0  0  0  0  0  0  0  0  0  0  0  0
  -11.3901    8.0772   16.5043 C   0  0  0  0  0  0  0  0  0  0  0  0
  -12.4670    7.3882   15.9334 C   0  0  0  0  0  0  0  0  0  0  0  0
  -12.2679    6.7979   14.6818 C   0  0  0  0  0  0  0  0  0  0  0  0
  -11.0407    6.8940   14.0302 C   0  0  0  0  0  0  0  0  0  0  0  0
   -9.9745    7.5868   14.6151 C   0  0  0  0  0  0  0  0  0  0  0  0
  -10.1496    8.1917   15.8769 C   0  0  0  0  0  0  0  0  0  0  0  0
  1  2  1  0
  2  3  1  0
  3  4  1  0
  4  5  2  0
  4  6  1  0
  6  7  1  0
  7  8  2  0
  7  9  1  0
  9 10  1  0
 10 11  1  0
 11 12  2  0
 12 13  1  0
 13 14  1  0
 14 15  2  0
 15 16  1  0
 16 17  2  0
 17 18  1  0
 18 19  2  0
 19 11  1  0
 19 14  1  0
M  END
$$$$
