
     RDKit          3D

 16 17  0  0  0  0  0  0  0  0999 V2000
   -8.3928  -19.7468   -3.4889 N   0  0  0  0  0  0  0  0  0  0  0  0
   -7.8312  -20.8376   -2.7038 C   0  0  0  0  0  0  0  0  0  0  0  0
   -8.9276  -21.5253   -1.8933 C   0  0  0  0  0  0  0  0  0  0  0  0
   -8.3450  -22.6074   -0.9932 C   0  0  0  0  0  0  0  0  0  0  0  0
   -9.4126  -23.4959   -0.3851 C   0  0  0  0  0  0  0  0  0  0  0  0
   -9.4613  -24.6956   -0.6721 O   0  0  0  0  0  0  0  0  0  0  0  0
  -10.3883  -22.8716    0.5957 C   0  0  0  0  0  0  0  0  0  0  0  0
  -11.6941  -22.5282   -0.0423 C   0  0  0  0  0  0  0  0  0  0  0  0
  -12.5610  -23.4142   -0.6544 C   0  0  0  0  0  0  0  0  0  0  0  0
  -13.6459  -22.7178   -1.1090 N   0  0  0  0  0  0  0  0  0  0  0  0
  -13.5183  -21.3851   -0.7977 C   0  0  0  0  0  0  0  0  0  0  0  0
  -14.3806  -20.3136   -1.0605 C   0  0  0  0  0  0  0  0  0  0  0  0
  -13.9927  -19.0457   -0.6197 C   0  0  0  0  0  0  0  0  0  0  0  0
  -12.7910  -18.8602    0.0580 C   0  0  0  0  0  0  0  0  0  0  0  0
  -11.9413  -19.9430    0.3136 C   0  0  0  0  0  0  0  0  0  0  0  0
  -12.3059  -21.2341   -0.1230 C   0  0  0  0  0  0  0  0  0  0  0  0
  1  2  1  0
  2  3  1  0
  3  4  1  0
  4  5  1  0
  5  6  2  0
  5  7  1  0
  7  8  1  0
  8  9  2  0
  9 10  1  0
 10 11  1  0
 11 12  2  0
 12 13  1  0
 13 14  2  0
 14 15  1  0
 15 16  2  0
 16  8  1  0
 16 11  1  0
M  END
$$$$
