
     RDKit          3D

 16 17  0  0  0  0  0  0  0  0999 V2000
   17.7619   -5.3741    8.6985 N   0  0  0  0  0  0  0  0  0  0  0  0
   16.8576   -5.5060    9.8408 C   0  0  0  0  0  0  0  0  0  0  0  0
   15.4449   -5.8245    9.3678 C   0  0  0  0  0  0  0  0  0  0  0  0
   14.4830   -5.9788   10.5319 C   0  0  0  0  0  0  0  0  0  0  0  0
   14.8086   -5.7181   11.6895 O   0  0  0  0  0  0  0  0  0  0  0  0
   13.0869   -6.4482   10.1702 C   0  0  0  0  0  0  0  0  0  0  0  0
   12.1934   -6.5940   11.3981 C   0  0  0  0  0  0  0  0  0  0  0  0
   10.8186   -7.0573   11.0319 C   0  0  0  0  0  0  0  0  0  0  0  0
   10.3695   -8.3636   11.0274 C   0  0  0  0  0  0  0  0  0  0  0  0
    9.0598   -8.3672   10.6301 N   0  0  0  0  0  0  0  0  0  0  0  0
    8.6382   -7.0852   10.3671 C   0  0  0  0  0  0  0  0  0  0  0  0
    7.3915   -6.6164    9.9354 C   0  0  0  0  0  0  0  0  0  0  0  0
    7.2455   -5.2383    9.7518 C   0  0  0  0  0  0  0  0  0  0  0  0
    8.3047   -4.3667    9.9920 C   0  0  0  0  0  0  0  0  0  0  0  0
    9.5446   -4.8528   10.4232 C   0  0  0  0  0  0  0  0  0  0  0  0
    9.7193   -6.2390   10.6149 C   0  0  0  0  0  0  0  0  0  0  0  0
  1  2  1  0
  2  3  1  0
  3  4  1  0
  4  5  2  0
  4  6  1  0
  6  7  1  0
  7  8  1  0
  8  9  2  0
  9 10  1  0
 10 11  1  0
 11 12  2  0
 12 13  1  0
 13 14  2  0
 14 15  1  0
 15 16  2  0
 16  8  1  0
 16 11  1  0
M  END
$$$$
