
     RDKit          3D

 26 28  0  0  0  0  0  0  0  0999 V2000
  -74.1813  -49.3073   91.3950 C   0  0  0  0  0  0  0  0  0  0  0  0
  -72.9016  -48.8278   91.8867 N   0  0  0  0  0  0  0  0  0  0  0  0
  -71.7489  -49.5876   91.6572 C   0  0  0  0  0  0  0  0  0  0  0  0
  -71.6302  -50.5235   90.6243 C   0  0  0  0  0  0  0  0  0  0  0  0
  -70.4347  -51.2248   90.4029 C   0  0  0  0  0  0  0  0  0  0  0  0
  -69.3125  -50.9718   91.1889 C   0  0  0  0  0  0  0  0  0  0  0  0
  -68.1027  -51.6027   91.0689 O   0  0  0  0  0  0  0  0  0  0  0  0
  -67.9708  -52.5754   90.0409 C   0  0  0  0  0  0  0  0  0  0  0  0
  -69.3990  -49.9801   92.1742 C   0  0  0  0  0  0  0  0  0  0  0  0
  -68.3001  -49.7250   92.9576 O   0  0  0  0  0  0  0  0  0  0  0  0
  -67.7541  -48.4123   92.7532 C   0  0  0  0  0  0  0  0  0  0  0  0
  -66.9509  -48.2943   91.4427 C   0  0  0  0  0  0  0  0  0  0  0  0
  -66.0050  -49.3880   91.1818 N   0  0  0  0  0  0  0  0  0  0  0  0
  -64.8756  -49.4026   92.1067 C   0  0  0  0  0  0  0  0  0  0  0  0
  -63.9408  -50.5768   91.8052 C   0  0  0  0  0  0  0  0  0  0  0  0
  -63.3206  -50.4995   90.4085 C   0  0  0  0  0  0  0  0  0  0  0  0
  -62.3273  -51.6067   90.1973 C   0  0  0  0  0  0  0  0  0  0  0  0
  -62.7716  -52.7805   89.6490 N   0  0  0  0  0  0  0  0  0  0  0  0
  -61.8877  -53.7873   89.4664 C   0  0  0  0  0  0  0  0  0  0  0  0
  -60.5735  -53.8069   89.7651 N   0  0  0  0  0  0  0  0  0  0  0  0
  -60.1964  -52.6398   90.3064 C   0  0  0  0  0  0  0  0  0  0  0  0
  -58.9455  -52.3041   90.7347 N   0  0  0  0  0  0  0  0  0  0  0  0
  -59.0057  -51.0272   91.2223 C   0  0  0  0  0  0  0  0  0  0  0  0
  -60.2184  -50.5232   91.1301 N   0  0  0  0  0  0  0  0  0  0  0  0
  -60.9754  -51.5216   90.5551 C   0  0  0  0  0  0  0  0  0  0  0  0
  -70.6031  -49.3079   92.4122 C   0  0  0  0  0  0  0  0  0  0  0  0
  1  2  1  0
  2  3  1  0
  3  4  2  0
  4  5  1  0
  5  6  2  0
  6  7  1  0
  7  8  1  0
  6  9  1  0
  9 10  1  0
 10 11  1  0
 11 12  1  0
 12 13  1  0
 13 14  1  0
 14 15  1  0
 15 16  1  0
 16 17  1  0
 17 18  2  0
 18 19  1  0
 19 20  2  0
 20 21  1  0
 21 22  1  0
 22 23  1  0
 23 24  2  0
 24 25  1  0
  9 26  2  0
 26  3  1  0
 25 17  1  0
 25 21  2  0
M  END
$$$$
