
     RDKit          3D

 15 16  0  0  0  0  0  0  0  0999 V2000
   -8.9765   -9.4980   24.5342 N   0  0  0  0  0  0  0  0  0  0  0  0
   -9.6633  -10.3117   25.3846 C   0  0  0  0  0  0  0  0  0  0  0  0
  -10.0058   -9.9035   26.4892 O   0  0  0  0  0  0  0  0  0  0  0  0
   -9.9770  -11.7004   24.9162 C   0  0  0  0  0  0  0  0  0  0  0  0
  -10.8517  -12.4378   25.7374 C   0  0  0  0  0  0  0  0  0  0  0  0
  -11.2237  -13.7398   25.4063 C   0  0  0  0  0  0  0  0  0  0  0  0
  -10.7228  -14.3254   24.2510 C   0  0  0  0  0  0  0  0  0  0  0  0
   -9.8501  -13.6102   23.4275 C   0  0  0  0  0  0  0  0  0  0  0  0
   -9.4596  -12.2890   23.7339 C   0  0  0  0  0  0  0  0  0  0  0  0
   -8.5471  -11.5916   22.8900 N   0  0  0  0  0  0  0  0  0  0  0  0
   -9.0287  -11.4773   21.4977 C   0  0  0  0  0  0  0  0  0  0  0  0
   -8.0932  -10.5449   20.7266 C   0  0  0  0  0  0  0  0  0  0  0  0
   -6.6474  -11.0357   20.7955 C   0  0  0  0  0  0  0  0  0  0  0  0
   -6.2103  -11.2519   22.2438 C   0  0  0  0  0  0  0  0  0  0  0  0
   -7.1871  -12.1629   22.9890 C   0  0  0  0  0  0  0  0  0  0  0  0
  1  2  1  0
  2  3  2  0
  2  4  1  0
  4  5  2  0
  5  6  1  0
  6  7  2  0
  7  8  1  0
  8  9  2  0
  9 10  1  0
 10 11  1  0
 11 12  1  0
 12 13  1  0
 13 14  1  0
 14 15  1  0
  9  4  1  0
 15 10  1  0
M  END
$$$$
