
     RDKit          3D

 20 22  0  0  0  0  0  0  0  0999 V2000
    6.1700   45.3494  -31.3907 N   0  0  0  0  0  0  0  0  0  0  0  0
    7.5298   44.8091  -31.3614 C   0  0  0  0  0  0  0  0  0  0  0  0
    8.1811   45.0008  -30.0132 C   0  0  0  0  0  0  0  0  0  0  0  0
    7.8205   44.1378  -28.9635 C   0  0  0  0  0  0  0  0  0  0  0  0
    8.4163   44.2939  -27.7244 C   0  0  0  0  0  0  0  0  0  0  0  0
    9.3310   45.2409  -27.4529 N   0  0  0  0  0  0  0  0  0  0  0  0
    9.6574   46.0668  -28.4788 C   0  0  0  0  0  0  0  0  0  0  0  0
    9.1437   46.0035  -29.7797 C   0  0  0  0  0  0  0  0  0  0  0  0
    9.4964   46.8991  -30.7868 N   0  0  0  0  0  0  0  0  0  0  0  0
    8.5427   48.0194  -30.9058 C   0  0  0  0  0  0  0  0  0  0  0  0
    9.2449   49.3803  -30.9008 C   0  0  0  0  0  0  0  0  0  0  0  0
   10.4237   49.3907  -29.9368 C   0  0  0  0  0  0  0  0  0  0  0  0
   11.4688   48.3282  -30.3039 C   0  0  0  0  0  0  0  0  0  0  0  0
   10.8952   47.1733  -31.1701 C   0  0  0  0  0  0  0  0  0  0  0  0
   11.8701   46.1047  -31.4722 N   0  0  0  0  0  0  0  0  0  0  0  0
   13.0226   46.5423  -32.2689 C   0  0  0  0  0  0  0  0  0  0  0  0
   14.3374   46.5544  -31.4914 C   0  0  0  0  0  0  0  0  0  0  0  0
   14.6718   45.1756  -30.9285 C   0  0  0  0  0  0  0  0  0  0  0  0
   13.4229   44.3360  -30.6747 C   0  0  0  0  0  0  0  0  0  0  0  0
   12.2067   45.2115  -30.3650 C   0  0  0  0  0  0  0  0  0  0  0  0
  1  2  1  0
  2  3  1  0
  3  4  2  0
  4  5  1  0
  5  6  2  0
  6  7  1  0
  7  8  2  0
  8  9  1  0
  9 10  1  0
 10 11  1  0
 11 12  1  0
 12 13  1  0
 13 14  1  0
 14 15  1  0
 15 16  1  0
 16 17  1  0
 17 18  1  0
 18 19  1  0
 19 20  1  0
  8  3  1  0
 14  9  1  0
 20 15  1  0
M  END
$$$$
