
     RDKit          3D

 22 24  0  0  0  0  0  0  0  0999 V2000
   12.4399  -41.3109  -13.4429 N   0  0  0  0  0  0  0  0  0  0  0  0
   12.4093  -41.9266  -14.7777 C   0  0  0  0  0  0  0  0  0  0  0  0
   13.8026  -41.9209  -15.3895 C   0  0  0  0  0  0  0  0  0  0  0  0
   14.5777  -40.9710  -15.2749 O   0  0  0  0  0  0  0  0  0  0  0  0
   14.1843  -43.0544  -16.2533 C   0  0  0  0  0  0  0  0  0  0  0  0
   14.2819  -42.7676  -17.6194 C   0  0  0  0  0  0  0  0  0  0  0  0
   14.6697  -43.7828  -18.4688 C   0  0  0  0  0  0  0  0  0  0  0  0
   14.9629  -45.0270  -18.0472 N   0  0  0  0  0  0  0  0  0  0  0  0
   14.8856  -45.2572  -16.7124 C   0  0  0  0  0  0  0  0  0  0  0  0
   14.5071  -44.3236  -15.7422 C   0  0  0  0  0  0  0  0  0  0  0  0
   14.4745  -44.6196  -14.3667 N   0  0  0  0  0  0  0  0  0  0  0  0
   13.2670  -45.3425  -13.9368 C   0  0  0  0  0  0  0  0  0  0  0  0
   13.3754  -46.8510  -14.1311 C   0  0  0  0  0  0  0  0  0  0  0  0
   14.7328  -47.4062  -13.7240 C   0  0  0  0  0  0  0  0  0  0  0  0
   15.5568  -46.3816  -12.9565 C   0  0  0  0  0  0  0  0  0  0  0  0
   15.7737  -45.0587  -13.7547 C   0  0  0  0  0  0  0  0  0  0  0  0
   16.4836  -44.1389  -12.8330 N   0  0  0  0  0  0  0  0  0  0  0  0
   16.3333  -42.7301  -13.2326 C   0  0  0  0  0  0  0  0  0  0  0  0
   17.3146  -41.7697  -12.5414 C   0  0  0  0  0  0  0  0  0  0  0  0
   17.8306  -42.3407  -11.2305 C   0  0  0  0  0  0  0  0  0  0  0  0
   18.4815  -43.7048  -11.4602 C   0  0  0  0  0  0  0  0  0  0  0  0
   17.9092  -44.4494  -12.6753 C   0  0  0  0  0  0  0  0  0  0  0  0
  1  2  1  0
  2  3  1  0
  3  4  2  0
  3  5  1  0
  5  6  2  0
  6  7  1  0
  7  8  2  0
  8  9  1  0
  9 10  2  0
 10 11  1  0
 11 12  1  0
 12 13  1  0
 13 14  1  0
 14 15  1  0
 15 16  1  0
 16 17  1  0
 17 18  1  0
 18 19  1  0
 19 20  1  0
 20 21  1  0
 21 22  1  0
 10  5  1  0
 16 11  1  0
 22 17  1  0
M  END
$$$$
