
     RDKit          3D

 17 18  0  0  0  0  0  0  0  0999 V2000
   14.4725    5.4987  -30.3620 C   0  0  0  0  0  0  0  0  0  0  0  0
   13.7889    6.7109  -30.0708 O   0  0  0  0  0  0  0  0  0  0  0  0
   14.5647    7.7959  -29.7700 C   0  0  0  0  0  0  0  0  0  0  0  0
   13.8636    8.9650  -29.5105 C   0  0  0  0  0  0  0  0  0  0  0  0
   14.5435   10.1407  -29.1851 C   0  0  0  0  0  0  0  0  0  0  0  0
   15.9484   10.1843  -29.0974 C   0  0  0  0  0  0  0  0  0  0  0  0
   16.6393   11.4827  -28.7201 C   0  0  0  0  0  0  0  0  0  0  0  0
   15.8654   12.5044  -27.8628 C   0  0  0  0  0  0  0  0  0  0  0  0
   14.9569   13.3505  -28.6387 N   0  0  0  0  0  0  0  0  0  0  0  0
   16.6703    9.0052  -29.3967 C   0  0  0  0  0  0  0  0  0  0  0  0
   18.0662    8.8736  -29.4053 N   0  0  0  0  0  0  0  0  0  0  0  0
   18.8345    9.7766  -30.2626 C   0  0  0  0  0  0  0  0  0  0  0  0
   20.2096    9.1572  -30.5192 C   0  0  0  0  0  0  0  0  0  0  0  0
   20.9193    8.8347  -29.2037 C   0  0  0  0  0  0  0  0  0  0  0  0
   20.0432    7.9568  -28.3097 C   0  0  0  0  0  0  0  0  0  0  0  0
   18.6591    8.5737  -28.0986 C   0  0  0  0  0  0  0  0  0  0  0  0
   15.9559    7.8256  -29.7121 C   0  0  0  0  0  0  0  0  0  0  0  0
  1  2  1  0
  2  3  1  0
  3  4  2  0
  4  5  1  0
  5  6  2  0
  6  7  1  0
  7  8  1  0
  8  9  1  0
  6 10  1  0
 10 11  1  0
 11 12  1  0
 12 13  1  0
 13 14  1  0
 14 15  1  0
 15 16  1  0
 10 17  2  0
 17  3  1  0
 16 11  1  0
M  END
$$$$
