
     RDKit          3D

 29 32  0  0  0  0  0  0  0  0999 V2000
  -57.3961   -5.0970   17.7458 N   0  0  0  0  0  0  0  0  0  0  0  0
  -56.6875   -3.6604   18.2939 S   0  0  0  0  0  0  0  0  0  0  0  0
  -56.9130   -2.7417   17.2002 O   0  0  0  0  0  0  0  0  0  0  0  0
  -55.3733   -4.0708   18.7375 O   0  0  0  0  0  0  0  0  0  0  0  0
  -57.6598   -3.1933   19.6906 C   0  0  0  0  0  0  0  0  0  0  0  0
  -58.6236   -4.0802   20.1850 C   0  0  0  0  0  0  0  0  0  0  0  0
  -59.3566   -3.6955   21.2900 C   0  0  0  0  0  0  0  0  0  0  0  0
  -59.1925   -2.5155   21.9149 N   0  0  0  0  0  0  0  0  0  0  0  0
  -58.2487   -1.6833   21.4076 C   0  0  0  0  0  0  0  0  0  0  0  0
  -57.4421   -1.9486   20.2985 C   0  0  0  0  0  0  0  0  0  0  0  0
  -56.4960   -1.0437   19.8251 N   0  0  0  0  0  0  0  0  0  0  0  0
  -57.0008    0.0304   18.9591 C   0  0  0  0  0  0  0  0  0  0  0  0
  -57.2195    1.3238   19.7374 C   0  0  0  0  0  0  0  0  0  0  0  0
  -55.9705    1.7213   20.5174 C   0  0  0  0  0  0  0  0  0  0  0  0
  -55.5154    0.5846   21.4304 C   0  0  0  0  0  0  0  0  0  0  0  0
  -55.3275   -0.7498   20.6866 C   0  0  0  0  0  0  0  0  0  0  0  0
  -54.0575   -0.7848   19.8063 C   0  0  0  0  0  0  0  0  0  0  0  0
  -52.7348   -0.7850   20.5810 C   0  0  0  0  0  0  0  0  0  0  0  0
  -52.6431   -1.9540   21.4597 N   0  0  0  0  0  0  0  0  0  0  0  0
  -51.3599   -2.0094   22.1673 C   0  0  0  0  0  0  0  0  0  0  0  0
  -50.2256   -2.4303   21.2897 C   0  0  0  0  0  0  0  0  0  0  0  0
  -49.3329   -1.6492   20.7130 N   0  0  0  0  0  0  0  0  0  0  0  0
  -48.5041   -2.4896   20.0104 C   0  0  0  0  0  0  0  0  0  0  0  0
  -47.3877   -2.1916   19.2160 C   0  0  0  0  0  0  0  0  0  0  0  0
  -46.7020   -3.2459   18.5982 C   0  0  0  0  0  0  0  0  0  0  0  0
  -47.1201   -4.5686   18.7680 C   0  0  0  0  0  0  0  0  0  0  0  0
  -48.2327   -4.8849   19.5569 C   0  0  0  0  0  0  0  0  0  0  0  0
  -48.8963   -3.8146   20.1608 C   0  0  0  0  0  0  0  0  0  0  0  0
  -49.9942   -3.7493   20.9787 N   0  0  0  0  0  0  0  0  0  0  0  0
  1  2  1  0
  2  3  2  0
  2  4  2  0
  2  5  1  0
  5  6  2  0
  6  7  1  0
  7  8  2  0
  8  9  1  0
  9 10  2  0
 10 11  1  0
 11 12  1  0
 12 13  1  0
 13 14  1  0
 14 15  1  0
 15 16  1  0
 16 17  1  0
 17 18  1  0
 18 19  1  0
 19 20  1  0
 20 21  1  0
 21 22  2  0
 22 23  1  0
 23 24  2  0
 24 25  1  0
 25 26  2  0
 26 27  1  0
 27 28  2  0
 28 29  1  0
 10  5  1  0
 16 11  1  0
 29 21  1  0
 28 23  1  0
M  END
$$$$
