
     RDKit          3D

 19 20  0  0  0  0  0  0  0  0999 V2000
   23.8599   -8.8905  -12.9302 N   0  0  0  0  0  0  0  0  0  0  0  0
   23.2206   -7.5757  -12.9419 C   0  0  0  0  0  0  0  0  0  0  0  0
   22.5707   -7.2287  -11.6097 C   0  0  0  0  0  0  0  0  0  0  0  0
   21.2415   -7.9300  -11.4169 C   0  0  0  0  0  0  0  0  0  0  0  0
   21.0835   -8.7470  -10.5064 O   0  0  0  0  0  0  0  0  0  0  0  0
   20.1282   -7.6008  -12.3971 C   0  0  0  0  0  0  0  0  0  0  0  0
   18.7507   -7.7953  -11.7777 C   0  0  0  0  0  0  0  0  0  0  0  0
   18.4810   -6.7989  -10.6638 C   0  0  0  0  0  0  0  0  0  0  0  0
   19.2145   -5.8257  -10.4757 O   0  0  0  0  0  0  0  0  0  0  0  0
   17.2471   -7.0437   -9.8153 C   0  0  0  0  0  0  0  0  0  0  0  0
   15.9968   -6.7601  -10.5770 C   0  0  0  0  0  0  0  0  0  0  0  0
   15.4573   -5.5130  -10.8186 C   0  0  0  0  0  0  0  0  0  0  0  0
   14.3177   -5.6722  -11.5581 N   0  0  0  0  0  0  0  0  0  0  0  0
   14.1042   -7.0007  -11.8214 C   0  0  0  0  0  0  0  0  0  0  0  0
   13.0790   -7.6193  -12.5466 C   0  0  0  0  0  0  0  0  0  0  0  0
   13.1135   -9.0149  -12.6615 C   0  0  0  0  0  0  0  0  0  0  0  0
   14.1336   -9.7552  -12.0726 C   0  0  0  0  0  0  0  0  0  0  0  0
   15.1482   -9.1206  -11.3456 C   0  0  0  0  0  0  0  0  0  0  0  0
   15.1378   -7.7132  -11.2153 C   0  0  0  0  0  0  0  0  0  0  0  0
  1  2  1  0
  2  3  1  0
  3  4  1  0
  4  5  2  0
  4  6  1  0
  6  7  1  0
  7  8  1  0
  8  9  2  0
  8 10  1  0
 10 11  1  0
 11 12  2  0
 12 13  1  0
 13 14  1  0
 14 15  2  0
 15 16  1  0
 16 17  2  0
 17 18  1  0
 18 19  2  0
 19 11  1  0
 19 14  1  0
M  END
$$$$
