
     RDKit          3D

 31 34  0  0  0  0  0  0  0  0999 V2000
  -85.0834   32.6642   61.6305 N   0  0  0  0  0  0  0  0  0  0  0  0
  -83.8889   33.0962   62.7427 S   0  0  0  0  0  0  0  0  0  0  0  0
  -83.1542   34.1329   62.0576 O   0  0  0  0  0  0  0  0  0  0  0  0
  -84.5912   33.3063   63.9859 O   0  0  0  0  0  0  0  0  0  0  0  0
  -82.8816   31.6514   62.9092 C   0  0  0  0  0  0  0  0  0  0  0  0
  -83.5133   30.4283   62.6123 C   0  0  0  0  0  0  0  0  0  0  0  0
  -82.7574   29.2780   62.5716 C   0  0  0  0  0  0  0  0  0  0  0  0
  -81.4381   29.2693   62.7981 N   0  0  0  0  0  0  0  0  0  0  0  0
  -80.8687   30.4619   63.1077 C   0  0  0  0  0  0  0  0  0  0  0  0
  -81.5086   31.7090   63.2085 C   0  0  0  0  0  0  0  0  0  0  0  0
  -80.7665   32.8141   63.6089 N   0  0  0  0  0  0  0  0  0  0  0  0
  -81.2513   33.7528   64.6368 C   0  0  0  0  0  0  0  0  0  0  0  0
  -81.3041   35.1920   64.1356 C   0  0  0  0  0  0  0  0  0  0  0  0
  -82.0601   36.0195   64.6529 O   0  0  0  0  0  0  0  0  0  0  0  0
  -80.2660   35.6342   63.1233 C   0  0  0  0  0  0  0  0  0  0  0  0
  -79.8624   34.5291   62.1526 C   0  0  0  0  0  0  0  0  0  0  0  0
  -79.5547   33.1977   62.8581 C   0  0  0  0  0  0  0  0  0  0  0  0
  -78.3061   33.3304   63.7585 C   0  0  0  0  0  0  0  0  0  0  0  0
  -77.8465   32.0071   64.3699 C   0  0  0  0  0  0  0  0  0  0  0  0
  -76.6382   32.2190   65.1745 N   0  0  0  0  0  0  0  0  0  0  0  0
  -75.4295   31.6313   64.5726 C   0  0  0  0  0  0  0  0  0  0  0  0
  -74.9681   32.3189   63.2787 C   0  0  0  0  0  0  0  0  0  0  0  0
  -73.6859   31.7428   62.7609 C   0  0  0  0  0  0  0  0  0  0  0  0
  -73.5586   30.7443   61.8141 C   0  0  0  0  0  0  0  0  0  0  0  0
  -72.2248   30.5056   61.6179 N   0  0  0  0  0  0  0  0  0  0  0  0
  -71.4700   31.3281   62.4205 C   0  0  0  0  0  0  0  0  0  0  0  0
  -70.0798   31.4311   62.5534 C   0  0  0  0  0  0  0  0  0  0  0  0
  -69.5836   32.3716   63.4609 C   0  0  0  0  0  0  0  0  0  0  0  0
  -70.4447   33.1753   64.2039 C   0  0  0  0  0  0  0  0  0  0  0  0
  -71.8321   33.0590   64.0584 C   0  0  0  0  0  0  0  0  0  0  0  0
  -72.3591   32.1181   63.1495 C   0  0  0  0  0  0  0  0  0  0  0  0
  1  2  1  0
  2  3  2  0
  2  4  2  0
  2  5  1  0
  5  6  2  0
  6  7  1  0
  7  8  2  0
  8  9  1  0
  9 10  2  0
 10 11  1  0
 11 12  1  0
 12 13  1  0
 13 14  2  0
 13 15  1  0
 15 16  1  0
 16 17  1  0
 17 18  1  0
 18 19  1  0
 19 20  1  0
 20 21  1  0
 21 22  1  0
 22 23  1  0
 23 24  2  0
 24 25  1  0
 25 26  1  0
 26 27  2  0
 27 28  1  0
 28 29  2  0
 29 30  1  0
 30 31  2  0
 10  5  1  0
 17 11  1  0
 31 23  1  0
 31 26  1  0
M  END
$$$$
