
     RDKit          3D

 27 29  0  0  0  0  0  0  0  0999 V2000
   14.5982   18.0473   -2.3588 N   0  0  0  0  0  0  0  0  0  0  0  0
   13.6605   17.1445   -2.7814 C   0  0  0  0  0  0  0  0  0  0  0  0
   13.3893   16.1514   -2.1236 O   0  0  0  0  0  0  0  0  0  0  0  0
   13.0008   17.4664   -4.0691 C   0  0  0  0  0  0  0  0  0  0  0  0
   12.3829   18.7213   -4.1598 C   0  0  0  0  0  0  0  0  0  0  0  0
   11.8157   19.0802   -5.3625 C   0  0  0  0  0  0  0  0  0  0  0  0
   11.8373   18.2889   -6.4484 N   0  0  0  0  0  0  0  0  0  0  0  0
   12.4398   17.0788   -6.3213 C   0  0  0  0  0  0  0  0  0  0  0  0
   13.0398   16.5788   -5.1642 C   0  0  0  0  0  0  0  0  0  0  0  0
   13.6372   15.3205   -5.0847 N   0  0  0  0  0  0  0  0  0  0  0  0
   12.8332   14.3096   -4.3435 C   0  0  0  0  0  0  0  0  0  0  0  0
   12.3997   13.1688   -5.2618 C   0  0  0  0  0  0  0  0  0  0  0  0
   12.0342   12.0774   -4.8240 O   0  0  0  0  0  0  0  0  0  0  0  0
   12.3577   13.4675   -6.7445 C   0  0  0  0  0  0  0  0  0  0  0  0
   13.6705   14.0665   -7.2483 C   0  0  0  0  0  0  0  0  0  0  0  0
   14.4948   14.7409   -6.1484 C   0  0  0  0  0  0  0  0  0  0  0  0
   15.5540   15.7261   -6.6766 C   0  0  0  0  0  0  0  0  0  0  0  0
   16.3250   16.2864   -5.5777 N   0  0  0  0  0  0  0  0  0  0  0  0
   17.3741   17.1443   -5.8109 C   0  0  0  0  0  0  0  0  0  0  0  0
   17.7964   17.4040   -6.9311 O   0  0  0  0  0  0  0  0  0  0  0  0
   17.9614   17.8018   -4.6104 C   0  0  0  0  0  0  0  0  0  0  0  0
   17.9162   17.2073   -3.3413 C   0  0  0  0  0  0  0  0  0  0  0  0
   18.4752   17.8642   -2.2407 C   0  0  0  0  0  0  0  0  0  0  0  0
   19.0828   19.1082   -2.4089 C   0  0  0  0  0  0  0  0  0  0  0  0
   19.7614   19.9161   -1.0509 Cl  0  0  0  0  0  0  0  0  0  0  0  0
   19.1456   19.6995   -3.6695 C   0  0  0  0  0  0  0  0  0  0  0  0
   18.5895   19.0441   -4.7713 C   0  0  0  0  0  0  0  0  0  0  0  0
  1  2  1  0
  2  3  2  0
  2  4  1  0
  4  5  2  0
  5  6  1  0
  6  7  2  0
  7  8  1  0
  8  9  2  0
  9 10  1  0
 10 11  1  0
 11 12  1  0
 12 13  2  0
 12 14  1  0
 14 15  1  0
 15 16  1  0
 16 17  1  0
 17 18  1  0
 18 19  1  0
 19 20  2  0
 19 21  1  0
 21 22  2  0
 22 23  1  0
 23 24  2  0
 24 25  1  0
 24 26  1  0
 26 27  2  0
  9  4  1  0
 16 10  1  0
 27 21  1  0
M  END
$$$$
