
     RDKit          3D

 20 21  0  0  0  0  0  0  0  0999 V2000
   -1.0386  -63.0118   34.4616 C   0  0  0  0  0  0  0  0  0  0  0  0
   -2.3901  -62.8102   33.9564 N   0  0  0  0  0  0  0  0  0  0  0  0
   -3.3396  -63.7006   34.6238 C   0  0  0  0  0  0  0  0  0  0  0  0
   -4.7614  -63.4911   34.0972 C   0  0  0  0  0  0  0  0  0  0  0  0
   -5.3052  -62.0910   34.3973 C   0  0  0  0  0  0  0  0  0  0  0  0
   -6.7426  -61.9507   33.9535 C   0  0  0  0  0  0  0  0  0  0  0  0
   -7.0414  -61.5414   32.6515 C   0  0  0  0  0  0  0  0  0  0  0  0
   -8.3668  -61.4283   32.2452 C   0  0  0  0  0  0  0  0  0  0  0  0
   -9.3994  -61.7207   33.1407 C   0  0  0  0  0  0  0  0  0  0  0  0
  -10.6790  -61.5594   32.6573 O   0  0  0  0  0  0  0  0  0  0  0  0
  -11.2616  -60.3724   33.1965 C   0  0  0  0  0  0  0  0  0  0  0  0
   -9.1431  -62.1862   34.4513 C   0  0  0  0  0  0  0  0  0  0  0  0
  -10.1984  -62.5431   35.3155 N   0  0  0  0  0  0  0  0  0  0  0  0
  -10.9510  -63.7211   34.8556 C   0  0  0  0  0  0  0  0  0  0  0  0
  -12.3160  -63.7207   35.5399 C   0  0  0  0  0  0  0  0  0  0  0  0
  -12.1736  -63.7674   37.0536 C   0  0  0  0  0  0  0  0  0  0  0  0
  -11.2427  -62.6794   37.5423 C   0  0  0  0  0  0  0  0  0  0  0  0
  -11.4645  -62.0813   38.5972 O   0  0  0  0  0  0  0  0  0  0  0  0
   -9.9453  -62.4960   36.7659 C   0  0  0  0  0  0  0  0  0  0  0  0
   -7.7928  -62.2722   34.8349 C   0  0  0  0  0  0  0  0  0  0  0  0
  1  2  1  0
  2  3  1  0
  3  4  1  0
  4  5  1  0
  5  6  1  0
  6  7  2  0
  7  8  1  0
  8  9  2  0
  9 10  1  0
 10 11  1  0
  9 12  1  0
 12 13  1  0
 13 14  1  0
 14 15  1  0
 15 16  1  0
 16 17  1  0
 17 18  2  0
 17 19  1  0
 12 20  2  0
 20  6  1  0
 19 13  1  0
M  END
$$$$
