
     RDKit          3D

 15 16  0  0  0  0  0  0  0  0999 V2000
   -8.4324  -34.3510   12.0550 N   0  0  0  0  0  0  0  0  0  0  0  0
   -9.1192  -35.1646   12.9054 C   0  0  0  0  0  0  0  0  0  0  0  0
   -9.4617  -34.7564   14.0100 O   0  0  0  0  0  0  0  0  0  0  0  0
   -9.4329  -36.5534   12.4370 C   0  0  0  0  0  0  0  0  0  0  0  0
  -10.3076  -37.2908   13.2582 C   0  0  0  0  0  0  0  0  0  0  0  0
  -10.6796  -38.5927   12.9271 C   0  0  0  0  0  0  0  0  0  0  0  0
  -10.1787  -39.1784   11.7718 C   0  0  0  0  0  0  0  0  0  0  0  0
   -9.3060  -38.4631   10.9483 C   0  0  0  0  0  0  0  0  0  0  0  0
   -8.9155  -37.1420   11.2547 C   0  0  0  0  0  0  0  0  0  0  0  0
   -8.0030  -36.4446   10.4108 N   0  0  0  0  0  0  0  0  0  0  0  0
   -8.4846  -36.3303    9.0185 C   0  0  0  0  0  0  0  0  0  0  0  0
   -7.5491  -35.3978    8.2474 C   0  0  0  0  0  0  0  0  0  0  0  0
   -6.1033  -35.8886    8.3163 C   0  0  0  0  0  0  0  0  0  0  0  0
   -5.6662  -36.1048    9.7646 C   0  0  0  0  0  0  0  0  0  0  0  0
   -6.6430  -37.0158   10.5098 C   0  0  0  0  0  0  0  0  0  0  0  0
  1  2  1  0
  2  3  2  0
  2  4  1  0
  4  5  2  0
  5  6  1  0
  6  7  2  0
  7  8  1  0
  8  9  2  0
  9 10  1  0
 10 11  1  0
 11 12  1  0
 12 13  1  0
 13 14  1  0
 14 15  1  0
  9  4  1  0
 15 10  1  0
M  END
$$$$
