
     RDKit          3D

 30 32  0  0  0  0  0  0  0  0999 V2000
    8.7313   13.5785   -7.0502 N   0  0  0  0  0  0  0  0  0  0  0  0
    8.2150   14.0793   -5.8877 C   0  0  0  0  0  0  0  0  0  0  0  0
    7.4723   13.4201   -5.1751 O   0  0  0  0  0  0  0  0  0  0  0  0
    8.6308   15.4515   -5.5259 C   0  0  0  0  0  0  0  0  0  0  0  0
    9.9983   15.7649   -5.5176 C   0  0  0  0  0  0  0  0  0  0  0  0
   10.4209   17.0438   -5.1394 C   0  0  0  0  0  0  0  0  0  0  0  0
    9.4784   18.0089   -4.7809 C   0  0  0  0  0  0  0  0  0  0  0  0
    9.9994   19.5889   -4.3330 Cl  0  0  0  0  0  0  0  0  0  0  0  0
    8.1179   17.7086   -4.7919 C   0  0  0  0  0  0  0  0  0  0  0  0
    7.6938   16.4221   -5.1464 C   0  0  0  0  0  0  0  0  0  0  0  0
    6.3495   16.1972   -5.2566 O   0  0  0  0  0  0  0  0  0  0  0  0
    5.7698   15.8589   -3.9928 C   0  0  0  0  0  0  0  0  0  0  0  0
    4.3171   15.8787   -4.1167 N   0  0  0  0  0  0  0  0  0  0  0  0
    3.7725   14.8263   -4.9031 C   0  0  0  0  0  0  0  0  0  0  0  0
    4.0354   13.4778   -4.6345 C   0  0  0  0  0  0  0  0  0  0  0  0
    3.4599   12.4734   -5.4138 C   0  0  0  0  0  0  0  0  0  0  0  0
    2.5928   12.8231   -6.4487 C   0  0  0  0  0  0  0  0  0  0  0  0
    1.8711   11.5636   -7.4623 S   0  0  0  0  0  0  0  0  0  0  0  0
    0.3777   11.3431   -6.7157 N   0  0  0  0  0  0  0  0  0  0  0  0
    1.6353   12.1200   -8.7740 O   0  0  0  0  0  0  0  0  0  0  0  0
    2.5968   10.3298   -7.2602 O   0  0  0  0  0  0  0  0  0  0  0  0
    2.2959   14.1623   -6.7228 C   0  0  0  0  0  0  0  0  0  0  0  0
    2.8759   15.1756   -5.9518 C   0  0  0  0  0  0  0  0  0  0  0  0
    2.6193   16.5553   -6.1714 N   0  0  0  0  0  0  0  0  0  0  0  0
    2.7379   16.9780   -7.5728 C   0  0  0  0  0  0  0  0  0  0  0  0
    2.8356   18.5060   -7.6255 C   0  0  0  0  0  0  0  0  0  0  0  0
    2.2029   19.2211   -6.4319 C   0  0  0  0  0  0  0  0  0  0  0  0
    1.0612   18.4279   -5.8359 C   0  0  0  0  0  0  0  0  0  0  0  0
   -0.0056   18.9665   -5.5397 O   0  0  0  0  0  0  0  0  0  0  0  0
    1.3304   16.9538   -5.5536 C   0  0  0  0  0  0  0  0  0  0  0  0
  1  2  1  0
  2  3  2  0
  2  4  1  0
  4  5  2  0
  5  6  1  0
  6  7  2  0
  7  8  1  0
  7  9  1  0
  9 10  2  0
 10 11  1  0
 11 12  1  0
 12 13  1  0
 13 14  1  0
 14 15  2  0
 15 16  1  0
 16 17  2  0
 17 18  1  0
 18 19  1  0
 18 20  2  0
 18 21  2  0
 17 22  1  0
 22 23  2  0
 23 24  1  0
 24 25  1  0
 25 26  1  0
 26 27  1  0
 27 28  1  0
 28 29  2  0
 28 30  1  0
 10  4  1  0
 23 14  1  0
 30 24  1  0
M  END
$$$$
