
     RDKit          3D

 18 19  0  0  0  0  0  0  0  0999 V2000
  -15.6347   -9.6305   -0.9692 N   0  0  0  0  0  0  0  0  0  0  0  0
  -16.1807   -8.5500   -0.1452 C   0  0  0  0  0  0  0  0  0  0  0  0
  -15.8128   -7.1881   -0.7212 C   0  0  0  0  0  0  0  0  0  0  0  0
  -16.3750   -6.0773    0.1440 C   0  0  0  0  0  0  0  0  0  0  0  0
  -16.3110   -6.0921    1.3726 O   0  0  0  0  0  0  0  0  0  0  0  0
  -16.9141   -4.8718   -0.5279 C   0  0  0  0  0  0  0  0  0  0  0  0
  -16.3205   -3.6464   -0.1824 C   0  0  0  0  0  0  0  0  0  0  0  0
  -16.7225   -2.4723   -0.8139 C   0  0  0  0  0  0  0  0  0  0  0  0
  -17.7150   -2.5353   -1.7820 C   0  0  0  0  0  0  0  0  0  0  0  0
  -18.1418   -1.4135   -2.4304 O   0  0  0  0  0  0  0  0  0  0  0  0
  -18.3229   -3.7464   -2.1155 C   0  0  0  0  0  0  0  0  0  0  0  0
  -17.9458   -4.9459   -1.4873 C   0  0  0  0  0  0  0  0  0  0  0  0
  -18.6062   -6.1598   -1.7553 N   0  0  0  0  0  0  0  0  0  0  0  0
  -19.5929   -6.5020   -0.7083 C   0  0  0  0  0  0  0  0  0  0  0  0
  -20.6335   -7.5057   -1.2138 C   0  0  0  0  0  0  0  0  0  0  0  0
  -20.0143   -8.5457   -2.1398 C   0  0  0  0  0  0  0  0  0  0  0  0
  -19.2771   -7.9021   -3.3177 C   0  0  0  0  0  0  0  0  0  0  0  0
  -19.0409   -6.4015   -3.1330 C   0  0  0  0  0  0  0  0  0  0  0  0
  1  2  1  0
  2  3  1  0
  3  4  1  0
  4  5  2  0
  4  6  1  0
  6  7  2  0
  7  8  1  0
  8  9  2  0
  9 10  1  0
  9 11  1  0
 11 12  2  0
 12 13  1  0
 13 14  1  0
 14 15  1  0
 15 16  1  0
 16 17  1  0
 17 18  1  0
 12  6  1  0
 18 13  1  0
M  END
$$$$
