
     RDKit          3D

 26 29  0  0  0  0  0  0  0  0999 V2000
   12.9038   13.5337  -24.2620 N   0  0  0  0  0  0  0  0  0  0  0  0
   12.7230   13.5164  -22.8135 C   0  0  0  0  0  0  0  0  0  0  0  0
   13.6865   14.4412  -22.1126 C   0  0  0  0  0  0  0  0  0  0  0  0
   13.3480   15.8104  -22.0845 C   0  0  0  0  0  0  0  0  0  0  0  0
   14.1634   16.7102  -21.4187 C   0  0  0  0  0  0  0  0  0  0  0  0
   15.2863   16.3542  -20.7754 N   0  0  0  0  0  0  0  0  0  0  0  0
   15.6051   15.0397  -20.8258 C   0  0  0  0  0  0  0  0  0  0  0  0
   14.8734   14.0320  -21.4779 C   0  0  0  0  0  0  0  0  0  0  0  0
   15.3635   12.7217  -21.4107 N   0  0  0  0  0  0  0  0  0  0  0  0
   14.7763   11.9022  -20.3339 C   0  0  0  0  0  0  0  0  0  0  0  0
   14.0085   10.7003  -20.8569 C   0  0  0  0  0  0  0  0  0  0  0  0
   12.9618   10.3185  -20.3284 O   0  0  0  0  0  0  0  0  0  0  0  0
   14.5968    9.9484  -22.0273 C   0  0  0  0  0  0  0  0  0  0  0  0
   15.9184   10.5570  -22.4707 C   0  0  0  0  0  0  0  0  0  0  0  0
   15.7643   12.0717  -22.6892 C   0  0  0  0  0  0  0  0  0  0  0  0
   17.0906   12.6715  -23.2310 C   0  0  0  0  0  0  0  0  0  0  0  0
   18.1329   12.6276  -22.2012 N   0  0  0  0  0  0  0  0  0  0  0  0
   19.3840   12.9591  -22.5725 C   0  0  0  0  0  0  0  0  0  0  0  0
   19.8952   13.0213  -23.7785 N   0  0  0  0  0  0  0  0  0  0  0  0
   21.2041   13.4002  -23.6049 C   0  0  0  0  0  0  0  0  0  0  0  0
   22.2092   13.6222  -24.5573 C   0  0  0  0  0  0  0  0  0  0  0  0
   23.4815   14.0066  -24.1141 C   0  0  0  0  0  0  0  0  0  0  0  0
   23.7471   14.1658  -22.7512 C   0  0  0  0  0  0  0  0  0  0  0  0
   22.7570   13.9481  -21.7856 C   0  0  0  0  0  0  0  0  0  0  0  0
   21.4991   13.5671  -22.2567 C   0  0  0  0  0  0  0  0  0  0  0  0
   20.3194   13.2746  -21.6231 N   0  0  0  0  0  0  0  0  0  0  0  0
  1  2  1  0
  2  3  1  0
  3  4  2  0
  4  5  1  0
  5  6  2  0
  6  7  1  0
  7  8  2  0
  8  9  1  0
  9 10  1  0
 10 11  1  0
 11 12  2  0
 11 13  1  0
 13 14  1  0
 14 15  1  0
 15 16  1  0
 16 17  1  0
 17 18  1  0
 18 19  2  0
 19 20  1  0
 20 21  2  0
 21 22  1  0
 22 23  2  0
 23 24  1  0
 24 25  2  0
 25 26  1  0
  8  3  1  0
 15  9  1  0
 26 18  1  0
 25 20  1  0
M  END
$$$$
