
     RDKit          3D

 19 20  0  0  0  0  0  0  0  0999 V2000
   70.5612   24.3238  -55.6288 N   0  0  0  0  0  0  0  0  0  0  0  0
   71.0682   23.8062  -56.8942 C   0  0  0  0  0  0  0  0  0  0  0  0
   71.0982   24.8851  -57.9664 C   0  0  0  0  0  0  0  0  0  0  0  0
   69.7062   25.2656  -58.4267 C   0  0  0  0  0  0  0  0  0  0  0  0
   68.9494   24.4454  -58.9504 O   0  0  0  0  0  0  0  0  0  0  0  0
   69.2775   26.6926  -58.2368 C   0  0  0  0  0  0  0  0  0  0  0  0
   68.8418   26.9997  -56.8311 C   0  0  0  0  0  0  0  0  0  0  0  0
   69.6353   27.4757  -56.0161 O   0  0  0  0  0  0  0  0  0  0  0  0
   67.4116   26.6838  -56.4544 C   0  0  0  0  0  0  0  0  0  0  0  0
   67.3196   25.3780  -55.6793 C   0  0  0  0  0  0  0  0  0  0  0  0
   65.8993   24.9915  -55.4146 C   0  0  0  0  0  0  0  0  0  0  0  0
   65.1526   25.3114  -54.2979 C   0  0  0  0  0  0  0  0  0  0  0  0
   63.9024   24.7751  -54.4495 N   0  0  0  0  0  0  0  0  0  0  0  0
   63.8106   24.1101  -55.6497 C   0  0  0  0  0  0  0  0  0  0  0  0
   62.7337   23.4211  -56.2206 C   0  0  0  0  0  0  0  0  0  0  0  0
   62.9329   22.8308  -57.4722 C   0  0  0  0  0  0  0  0  0  0  0  0
   64.1601   22.9269  -58.1239 C   0  0  0  0  0  0  0  0  0  0  0  0
   65.2263   23.6197  -57.5389 C   0  0  0  0  0  0  0  0  0  0  0  0
   65.0512   24.2246  -56.2771 C   0  0  0  0  0  0  0  0  0  0  0  0
  1  2  1  0
  2  3  1  0
  3  4  1  0
  4  5  2  0
  4  6  1  0
  6  7  1  0
  7  8  2  0
  7  9  1  0
  9 10  1  0
 10 11  1  0
 11 12  2  0
 12 13  1  0
 13 14  1  0
 14 15  2  0
 15 16  1  0
 16 17  2  0
 17 18  1  0
 18 19  2  0
 19 11  1  0
 19 14  1  0
M  END
$$$$
