
     RDKit          3D

 18 19  0  0  0  0  0  0  0  0999 V2000
   -6.1954    0.7082    9.9524 C   0  0  0  0  0  0  0  0  0  0  0  0
   -5.8773   -0.3628   10.8310 O   0  0  0  0  0  0  0  0  0  0  0  0
   -5.4809   -1.5715   10.1642 C   0  0  0  0  0  0  0  0  0  0  0  0
   -4.7983   -2.4412   11.2347 C   0  0  0  0  0  0  0  0  0  0  0  0
   -4.2138   -3.7688   10.7484 C   0  0  0  0  0  0  0  0  0  0  0  0
   -3.1892   -3.6267    9.6682 C   0  0  0  0  0  0  0  0  0  0  0  0
   -3.3526   -3.9574    8.3364 C   0  0  0  0  0  0  0  0  0  0  0  0
   -2.1852   -3.6809    7.6769 N   0  0  0  0  0  0  0  0  0  0  0  0
   -1.2517   -3.1785    8.5518 C   0  0  0  0  0  0  0  0  0  0  0  0
    0.0663   -2.7648    8.3236 C   0  0  0  0  0  0  0  0  0  0  0  0
    0.7963   -2.2930    9.4181 C   0  0  0  0  0  0  0  0  0  0  0  0
    0.2288   -2.2395   10.6885 C   0  0  0  0  0  0  0  0  0  0  0  0
   -1.0903   -2.6579   10.8985 C   0  0  0  0  0  0  0  0  0  0  0  0
   -1.8503   -3.1363    9.8111 C   0  0  0  0  0  0  0  0  0  0  0  0
   -6.6498   -2.2452    9.4340 C   0  0  0  0  0  0  0  0  0  0  0  0
   -7.8850   -2.4432   10.2825 C   0  0  0  0  0  0  0  0  0  0  0  0
   -7.8954   -3.5450   11.0840 N   0  0  0  0  0  0  0  0  0  0  0  0
   -8.8506   -1.6873   10.2522 O   0  0  0  0  0  0  0  0  0  0  0  0
  1  2  1  0
  2  3  1  0
  3  4  1  0
  4  5  1  0
  5  6  1  0
  6  7  2  0
  7  8  1  0
  8  9  1  0
  9 10  2  0
 10 11  1  0
 11 12  2  0
 12 13  1  0
 13 14  2  0
  3 15  1  0
 15 16  1  0
 16 17  1  0
 16 18  2  0
 14  6  1  0
 14  9  1  0
M  END
$$$$
