
     RDKit          3D

 19 20  0  0  0  0  0  0  0  0999 V2000
  -20.5275   -6.5057   18.4317 N   0  0  0  0  0  0  0  0  0  0  0  0
  -21.1668   -5.1909   18.4201 C   0  0  0  0  0  0  0  0  0  0  0  0
  -21.8168   -4.8439   19.7522 C   0  0  0  0  0  0  0  0  0  0  0  0
  -23.1460   -5.5452   19.9451 C   0  0  0  0  0  0  0  0  0  0  0  0
  -23.3039   -6.3622   20.8556 O   0  0  0  0  0  0  0  0  0  0  0  0
  -24.2593   -5.2160   18.9649 C   0  0  0  0  0  0  0  0  0  0  0  0
  -25.6367   -5.4106   19.5842 C   0  0  0  0  0  0  0  0  0  0  0  0
  -25.9064   -4.4141   20.6982 C   0  0  0  0  0  0  0  0  0  0  0  0
  -25.1729   -3.4409   20.8863 O   0  0  0  0  0  0  0  0  0  0  0  0
  -27.1403   -4.6590   21.5466 C   0  0  0  0  0  0  0  0  0  0  0  0
  -28.3906   -4.3753   20.7850 C   0  0  0  0  0  0  0  0  0  0  0  0
  -28.9301   -3.1282   20.5434 C   0  0  0  0  0  0  0  0  0  0  0  0
  -30.0697   -3.2874   19.8039 N   0  0  0  0  0  0  0  0  0  0  0  0
  -30.2832   -4.6159   19.5406 C   0  0  0  0  0  0  0  0  0  0  0  0
  -31.3084   -5.2345   18.8154 C   0  0  0  0  0  0  0  0  0  0  0  0
  -31.2739   -6.6301   18.7005 C   0  0  0  0  0  0  0  0  0  0  0  0
  -30.2539   -7.3704   19.2894 C   0  0  0  0  0  0  0  0  0  0  0  0
  -29.2392   -6.7359   20.0164 C   0  0  0  0  0  0  0  0  0  0  0  0
  -29.2496   -5.3284   20.1466 C   0  0  0  0  0  0  0  0  0  0  0  0
  1  2  1  0
  2  3  1  0
  3  4  1  0
  4  5  2  0
  4  6  1  0
  6  7  1  0
  7  8  1  0
  8  9  2  0
  8 10  1  0
 10 11  1  0
 11 12  2  0
 12 13  1  0
 13 14  1  0
 14 15  2  0
 15 16  1  0
 16 17  2  0
 17 18  1  0
 18 19  2  0
 19 11  1  0
 19 14  1  0
M  END
$$$$
