
     RDKit          3D

 30 33  0  0  0  0  0  0  0  0999 V2000
  -18.7975  -12.9850   -1.2317 N   0  0  0  0  0  0  0  0  0  0  0  0
  -17.9162  -13.2496   -2.6503 S   0  0  0  0  0  0  0  0  0  0  0  0
  -18.7866  -12.7693   -3.6991 O   0  0  0  0  0  0  0  0  0  0  0  0
  -16.6195  -12.6777   -2.3598 O   0  0  0  0  0  0  0  0  0  0  0  0
  -17.7717  -15.0032   -2.7639 C   0  0  0  0  0  0  0  0  0  0  0  0
  -18.4072  -15.8194   -1.8232 C   0  0  0  0  0  0  0  0  0  0  0  0
  -18.2487  -17.1869   -1.9370 C   0  0  0  0  0  0  0  0  0  0  0  0
  -17.5162  -17.7746   -2.9023 N   0  0  0  0  0  0  0  0  0  0  0  0
  -16.9199  -16.9538   -3.7993 C   0  0  0  0  0  0  0  0  0  0  0  0
  -17.0004  -15.5577   -3.7941 C   0  0  0  0  0  0  0  0  0  0  0  0
  -16.3611  -14.7528   -4.7535 N   0  0  0  0  0  0  0  0  0  0  0  0
  -16.8772  -15.0343   -6.1088 C   0  0  0  0  0  0  0  0  0  0  0  0
  -16.4188  -13.9500   -7.0755 C   0  0  0  0  0  0  0  0  0  0  0  0
  -14.9011  -13.8478   -7.0721 C   0  0  0  0  0  0  0  0  0  0  0  0
  -14.3900  -13.6183   -5.6527 C   0  0  0  0  0  0  0  0  0  0  0  0
  -14.8852  -14.7035   -4.6564 C   0  0  0  0  0  0  0  0  0  0  0  0
  -14.2404  -14.3099   -3.4052 N   0  0  0  0  0  0  0  0  0  0  0  0
  -14.0279  -15.3492   -2.3982 C   0  0  0  0  0  0  0  0  0  0  0  0
  -13.0876  -16.5178   -2.7793 C   0  0  0  0  0  0  0  0  0  0  0  0
  -11.6516  -16.2225   -2.7555 N   0  0  0  0  0  0  0  0  0  0  0  0
  -11.2601  -15.2093   -3.7319 C   0  0  0  0  0  0  0  0  0  0  0  0
   -9.7666  -15.2346   -3.8455 C   0  0  0  0  0  0  0  0  0  0  0  0
   -9.0229  -15.9360   -4.7781 C   0  0  0  0  0  0  0  0  0  0  0  0
   -7.6970  -15.6838   -4.5506 N   0  0  0  0  0  0  0  0  0  0  0  0
   -7.5493  -14.8288   -3.4844 C   0  0  0  0  0  0  0  0  0  0  0  0
   -6.3892  -14.3022   -2.9030 C   0  0  0  0  0  0  0  0  0  0  0  0
   -6.5439  -13.4475   -1.8075 C   0  0  0  0  0  0  0  0  0  0  0  0
   -7.8084  -13.1353   -1.3144 C   0  0  0  0  0  0  0  0  0  0  0  0
   -8.9570  -13.6705   -1.9084 C   0  0  0  0  0  0  0  0  0  0  0  0
   -8.8300  -14.5325   -3.0173 C   0  0  0  0  0  0  0  0  0  0  0  0
  1  2  1  0
  2  3  2  0
  2  4  2  0
  2  5  1  0
  5  6  2  0
  6  7  1  0
  7  8  2  0
  8  9  1  0
  9 10  2  0
 10 11  1  0
 11 12  1  0
 12 13  1  0
 13 14  1  0
 14 15  1  0
 15 16  1  0
 16 17  1  0
 17 18  1  0
 18 19  1  0
 19 20  1  0
 20 21  1  0
 21 22  1  0
 22 23  2  0
 23 24  1  0
 24 25  1  0
 25 26  2  0
 26 27  1  0
 27 28  2  0
 28 29  1  0
 29 30  2  0
 10  5  1  0
 16 11  1  0
 30 22  1  0
 30 25  1  0
M  END
$$$$
