
     RDKit          3D

 19 20  0  0  0  0  0  0  0  0999 V2000
  -11.1839    0.4272   25.2679 N   0  0  0  0  0  0  0  0  0  0  0  0
  -10.6769   -0.0905   24.0024 C   0  0  0  0  0  0  0  0  0  0  0  0
  -10.6468    0.9885   22.9302 C   0  0  0  0  0  0  0  0  0  0  0  0
  -12.0389    1.3689   22.4700 C   0  0  0  0  0  0  0  0  0  0  0  0
  -12.7957    0.5487   21.9463 O   0  0  0  0  0  0  0  0  0  0  0  0
  -12.4676    2.7959   22.6598 C   0  0  0  0  0  0  0  0  0  0  0  0
  -12.9033    3.1030   24.0655 C   0  0  0  0  0  0  0  0  0  0  0  0
  -12.1098    3.5791   24.8805 O   0  0  0  0  0  0  0  0  0  0  0  0
  -14.3335    2.7871   24.4422 C   0  0  0  0  0  0  0  0  0  0  0  0
  -14.4255    1.4813   25.2173 C   0  0  0  0  0  0  0  0  0  0  0  0
  -15.8458    1.0948   25.4820 C   0  0  0  0  0  0  0  0  0  0  0  0
  -16.5924    1.4148   26.5988 C   0  0  0  0  0  0  0  0  0  0  0  0
  -17.8427    0.8785   26.4471 N   0  0  0  0  0  0  0  0  0  0  0  0
  -17.9344    0.2134   25.2469 C   0  0  0  0  0  0  0  0  0  0  0  0
  -19.0114   -0.4755   24.6760 C   0  0  0  0  0  0  0  0  0  0  0  0
  -18.8122   -1.0659   23.4244 C   0  0  0  0  0  0  0  0  0  0  0  0
  -17.5850   -0.9698   22.7728 C   0  0  0  0  0  0  0  0  0  0  0  0
  -16.5188   -0.2770   23.3577 C   0  0  0  0  0  0  0  0  0  0  0  0
  -16.6939    0.3280   24.6195 C   0  0  0  0  0  0  0  0  0  0  0  0
  1  2  1  0
  2  3  1  0
  3  4  1  0
  4  5  2  0
  4  6  1  0
  6  7  1  0
  7  8  2  0
  7  9  1  0
  9 10  1  0
 10 11  1  0
 11 12  2  0
 12 13  1  0
 13 14  1  0
 14 15  2  0
 15 16  1  0
 16 17  2  0
 17 18  1  0
 18 19  2  0
 19 11  1  0
 19 14  1  0
M  END
$$$$
