
     RDKit          3D

 23 25  0  0  0  0  0  0  0  0999 V2000
  -13.9196  -47.9647   18.8020 C   0  0  0  0  0  0  0  0  0  0  0  0
  -13.4096  -47.8093   17.4858 O   0  0  0  0  0  0  0  0  0  0  0  0
  -13.9634  -46.8382   16.6842 C   0  0  0  0  0  0  0  0  0  0  0  0
  -14.9687  -45.9645   17.1258 C   0  0  0  0  0  0  0  0  0  0  0  0
  -15.4605  -44.9572   16.2934 C   0  0  0  0  0  0  0  0  0  0  0  0
  -14.9605  -44.8060   15.0012 C   0  0  0  0  0  0  0  0  0  0  0  0
  -15.4843  -43.7312   14.0853 C   0  0  0  0  0  0  0  0  0  0  0  0
  -14.4626  -42.7295   13.8049 N   0  0  0  0  0  0  0  0  0  0  0  0
  -13.9555  -45.6826   14.5627 C   0  0  0  0  0  0  0  0  0  0  0  0
  -13.4325  -46.7095   15.3749 C   0  0  0  0  0  0  0  0  0  0  0  0
  -12.4418  -47.5384   14.8429 N   0  0  0  0  0  0  0  0  0  0  0  0
  -12.4175  -48.9629   15.1936 C   0  0  0  0  0  0  0  0  0  0  0  0
  -12.1033  -49.7655   13.9392 C   0  0  0  0  0  0  0  0  0  0  0  0
  -12.2050  -50.9922   13.8928 O   0  0  0  0  0  0  0  0  0  0  0  0
  -11.6742  -48.9614   12.7342 C   0  0  0  0  0  0  0  0  0  0  0  0
  -10.6560  -47.9310   13.2019 C   0  0  0  0  0  0  0  0  0  0  0  0
  -11.1938  -46.9553   14.3035 C   0  0  0  0  0  0  0  0  0  0  0  0
  -10.0545  -46.6269   15.1931 N   0  0  0  0  0  0  0  0  0  0  0  0
  -10.4927  -45.9489   16.4255 C   0  0  0  0  0  0  0  0  0  0  0  0
   -9.3727  -45.1990   17.1656 C   0  0  0  0  0  0  0  0  0  0  0  0
   -8.0113  -45.8174   16.8937 C   0  0  0  0  0  0  0  0  0  0  0  0
   -7.7281  -45.8569   15.3915 C   0  0  0  0  0  0  0  0  0  0  0  0
   -9.0017  -45.8472   14.5348 C   0  0  0  0  0  0  0  0  0  0  0  0
  1  2  1  0
  2  3  1  0
  3  4  2  0
  4  5  1  0
  5  6  2  0
  6  7  1  0
  7  8  1  0
  6  9  1  0
  9 10  2  0
 10 11  1  0
 11 12  1  0
 12 13  1  0
 13 14  2  0
 13 15  1  0
 15 16  1  0
 16 17  1  0
 17 18  1  0
 18 19  1  0
 19 20  1  0
 20 21  1  0
 21 22  1  0
 22 23  1  0
 10  3  1  0
 17 11  1  0
 23 18  1  0
M  END
$$$$
