
     RDKit          3D

 16 17  0  0  0  0  0  0  0  0999 V2000
  -33.4911   -4.7662   10.4495 N   0  0  0  0  0  0  0  0  0  0  0  0
  -32.9295   -5.8570   11.2347 C   0  0  0  0  0  0  0  0  0  0  0  0
  -34.0259   -6.5447   12.0451 C   0  0  0  0  0  0  0  0  0  0  0  0
  -33.4434   -7.6268   12.9452 C   0  0  0  0  0  0  0  0  0  0  0  0
  -34.5109   -8.5153   13.5534 C   0  0  0  0  0  0  0  0  0  0  0  0
  -34.5596   -9.7150   13.2663 O   0  0  0  0  0  0  0  0  0  0  0  0
  -35.4866   -7.8910   14.5341 C   0  0  0  0  0  0  0  0  0  0  0  0
  -36.7924   -7.5476   13.8961 C   0  0  0  0  0  0  0  0  0  0  0  0
  -37.6593   -8.4336   13.2841 C   0  0  0  0  0  0  0  0  0  0  0  0
  -38.7442   -7.7372   12.8294 N   0  0  0  0  0  0  0  0  0  0  0  0
  -38.6166   -6.4045   13.1407 C   0  0  0  0  0  0  0  0  0  0  0  0
  -39.4789   -5.3330   12.8779 C   0  0  0  0  0  0  0  0  0  0  0  0
  -39.0910   -4.0651   13.3188 C   0  0  0  0  0  0  0  0  0  0  0  0
  -37.8893   -3.8796   13.9964 C   0  0  0  0  0  0  0  0  0  0  0  0
  -37.0396   -4.9624   14.2521 C   0  0  0  0  0  0  0  0  0  0  0  0
  -37.4042   -6.2535   13.8154 C   0  0  0  0  0  0  0  0  0  0  0  0
  1  2  1  0
  2  3  1  0
  3  4  1  0
  4  5  1  0
  5  6  2  0
  5  7  1  0
  7  8  1  0
  8  9  2  0
  9 10  1  0
 10 11  1  0
 11 12  2  0
 12 13  1  0
 13 14  2  0
 14 15  1  0
 15 16  2  0
 16  8  1  0
 16 11  1  0
M  END
$$$$
