
     RDKit          3D

 20 22  0  0  0  0  0  0  0  0999 V2000
  -16.8616    9.9341  -55.3811 N   0  0  0  0  0  0  0  0  0  0  0  0
  -15.5018    9.3938  -55.3518 C   0  0  0  0  0  0  0  0  0  0  0  0
  -14.8505    9.5855  -54.0037 C   0  0  0  0  0  0  0  0  0  0  0  0
  -15.2111    8.7225  -52.9540 C   0  0  0  0  0  0  0  0  0  0  0  0
  -14.6153    8.8786  -51.7149 C   0  0  0  0  0  0  0  0  0  0  0  0
  -13.7006    9.8255  -51.4434 N   0  0  0  0  0  0  0  0  0  0  0  0
  -13.3742   10.6515  -52.4692 C   0  0  0  0  0  0  0  0  0  0  0  0
  -13.8879   10.5882  -53.7701 C   0  0  0  0  0  0  0  0  0  0  0  0
  -13.5352   11.4838  -54.7772 N   0  0  0  0  0  0  0  0  0  0  0  0
  -14.4889   12.6041  -54.8962 C   0  0  0  0  0  0  0  0  0  0  0  0
  -13.7867   13.9650  -54.8913 C   0  0  0  0  0  0  0  0  0  0  0  0
  -12.6080   13.9753  -53.9273 C   0  0  0  0  0  0  0  0  0  0  0  0
  -11.5628   12.9128  -54.2944 C   0  0  0  0  0  0  0  0  0  0  0  0
  -12.1364   11.7580  -55.1606 C   0  0  0  0  0  0  0  0  0  0  0  0
  -11.1616   10.6894  -55.4627 N   0  0  0  0  0  0  0  0  0  0  0  0
  -10.0090   11.1270  -56.2594 C   0  0  0  0  0  0  0  0  0  0  0  0
   -8.6942   11.1391  -55.4819 C   0  0  0  0  0  0  0  0  0  0  0  0
   -8.3598    9.7603  -54.9189 C   0  0  0  0  0  0  0  0  0  0  0  0
   -9.6088    8.9207  -54.6652 C   0  0  0  0  0  0  0  0  0  0  0  0
  -10.8249    9.7962  -54.3555 C   0  0  0  0  0  0  0  0  0  0  0  0
  1  2  1  0
  2  3  1  0
  3  4  2  0
  4  5  1  0
  5  6  2  0
  6  7  1  0
  7  8  2  0
  8  9  1  0
  9 10  1  0
 10 11  1  0
 11 12  1  0
 12 13  1  0
 13 14  1  0
 14 15  1  0
 15 16  1  0
 16 17  1  0
 17 18  1  0
 18 19  1  0
 19 20  1  0
  8  3  1  0
 14  9  1  0
 20 15  1  0
M  END
$$$$
