
     RDKit          3D

 16 17  0  0  0  0  0  0  0  0999 V2000
   28.9676  -16.5446    6.7126 N   0  0  0  0  0  0  0  0  0  0  0  0
   28.0634  -16.6765    7.8549 C   0  0  0  0  0  0  0  0  0  0  0  0
   26.6506  -16.9950    7.3819 C   0  0  0  0  0  0  0  0  0  0  0  0
   25.6887  -17.1493    8.5461 C   0  0  0  0  0  0  0  0  0  0  0  0
   26.0143  -16.8886    9.7036 O   0  0  0  0  0  0  0  0  0  0  0  0
   24.2926  -17.6188    8.1843 C   0  0  0  0  0  0  0  0  0  0  0  0
   23.3991  -17.7645    9.4122 C   0  0  0  0  0  0  0  0  0  0  0  0
   22.0243  -18.2278    9.0460 C   0  0  0  0  0  0  0  0  0  0  0  0
   21.5753  -19.5341    9.0415 C   0  0  0  0  0  0  0  0  0  0  0  0
   20.2656  -19.5377    8.6442 N   0  0  0  0  0  0  0  0  0  0  0  0
   19.8439  -18.2557    8.3812 C   0  0  0  0  0  0  0  0  0  0  0  0
   18.5972  -17.7869    7.9495 C   0  0  0  0  0  0  0  0  0  0  0  0
   18.4512  -16.4089    7.7659 C   0  0  0  0  0  0  0  0  0  0  0  0
   19.5105  -15.5373    8.0061 C   0  0  0  0  0  0  0  0  0  0  0  0
   20.7503  -16.0233    8.4373 C   0  0  0  0  0  0  0  0  0  0  0  0
   20.9250  -17.4095    8.6290 C   0  0  0  0  0  0  0  0  0  0  0  0
  1  2  1  0
  2  3  1  0
  3  4  1  0
  4  5  2  0
  4  6  1  0
  6  7  1  0
  7  8  1  0
  8  9  2  0
  9 10  1  0
 10 11  1  0
 11 12  2  0
 12 13  1  0
 13 14  2  0
 14 15  1  0
 15 16  2  0
 16  8  1  0
 16 11  1  0
M  END
$$$$
