
     RDKit          3D

 26 29  0  0  0  0  0  0  0  0999 V2000
   -7.3185   20.8893  -12.4128 N   0  0  0  0  0  0  0  0  0  0  0  0
   -6.9012   19.9690  -13.4792 C   0  0  0  0  0  0  0  0  0  0  0  0
   -6.9307   20.5719  -14.8678 C   0  0  0  0  0  0  0  0  0  0  0  0
   -6.9524   21.9639  -15.0611 C   0  0  0  0  0  0  0  0  0  0  0  0
   -6.9832   22.4757  -16.3501 C   0  0  0  0  0  0  0  0  0  0  0  0
   -6.9798   21.7130  -17.4588 N   0  0  0  0  0  0  0  0  0  0  0  0
   -6.9261   20.3761  -17.2553 C   0  0  0  0  0  0  0  0  0  0  0  0
   -6.8888   19.7408  -16.0033 C   0  0  0  0  0  0  0  0  0  0  0  0
   -6.7953   18.3442  -15.8563 N   0  0  0  0  0  0  0  0  0  0  0  0
   -8.0454   17.6703  -16.2667 C   0  0  0  0  0  0  0  0  0  0  0  0
   -7.8058   16.1974  -16.5795 C   0  0  0  0  0  0  0  0  0  0  0  0
   -6.7915   16.0343  -17.7102 C   0  0  0  0  0  0  0  0  0  0  0  0
   -5.6407   17.0427  -17.6360 C   0  0  0  0  0  0  0  0  0  0  0  0
   -5.5136   17.6780  -16.2426 C   0  0  0  0  0  0  0  0  0  0  0  0
   -4.2694   18.5797  -16.0930 C   0  0  0  0  0  0  0  0  0  0  0  0
   -2.9578   17.7974  -16.1838 C   0  0  0  0  0  0  0  0  0  0  0  0
   -1.8475   18.6717  -15.8527 N   0  0  0  0  0  0  0  0  0  0  0  0
   -0.5800   18.0814  -15.8641 C   0  0  0  0  0  0  0  0  0  0  0  0
   -0.4186   16.7568  -15.5979 N   0  0  0  0  0  0  0  0  0  0  0  0
    0.8325   16.2431  -15.5866 C   0  0  0  0  0  0  0  0  0  0  0  0
    2.0022   16.8729  -15.8214 N   0  0  0  0  0  0  0  0  0  0  0  0
    1.7890   18.1669  -16.0895 C   0  0  0  0  0  0  0  0  0  0  0  0
    2.7318   19.1137  -16.3715 N   0  0  0  0  0  0  0  0  0  0  0  0
    2.0787   20.2947  -16.5916 C   0  0  0  0  0  0  0  0  0  0  0  0
    0.7736   20.1643  -16.4640 N   0  0  0  0  0  0  0  0  0  0  0  0
    0.5789   18.8355  -16.1365 C   0  0  0  0  0  0  0  0  0  0  0  0
  1  2  1  0
  2  3  1  0
  3  4  2  0
  4  5  1  0
  5  6  2  0
  6  7  1  0
  7  8  2  0
  8  9  1  0
  9 10  1  0
 10 11  1  0
 11 12  1  0
 12 13  1  0
 13 14  1  0
 14 15  1  0
 15 16  1  0
 16 17  1  0
 17 18  1  0
 18 19  2  0
 19 20  1  0
 20 21  2  0
 21 22  1  0
 22 23  1  0
 23 24  1  0
 24 25  2  0
 25 26  1  0
  8  3  1  0
 14  9  1  0
 26 18  1  0
 26 22  2  0
M  END
$$$$
