
     RDKit          3D

 19 20  0  0  0  0  0  0  0  0999 V2000
  -11.2822    7.1761   -0.9441 N   0  0  0  0  0  0  0  0  0  0  0  0
  -10.7752    6.6584   -2.2095 C   0  0  0  0  0  0  0  0  0  0  0  0
  -10.7451    7.7373   -3.2817 C   0  0  0  0  0  0  0  0  0  0  0  0
  -12.1372    8.1178   -3.7420 C   0  0  0  0  0  0  0  0  0  0  0  0
  -12.8940    7.2976   -4.2656 O   0  0  0  0  0  0  0  0  0  0  0  0
  -12.5659    9.5448   -3.5521 C   0  0  0  0  0  0  0  0  0  0  0  0
  -13.0016    9.8519   -2.1464 C   0  0  0  0  0  0  0  0  0  0  0  0
  -12.2081   10.3280   -1.3314 O   0  0  0  0  0  0  0  0  0  0  0  0
  -14.4318    9.5360   -1.7697 C   0  0  0  0  0  0  0  0  0  0  0  0
  -14.5238    8.2302   -0.9946 C   0  0  0  0  0  0  0  0  0  0  0  0
  -15.9441    7.8437   -0.7299 C   0  0  0  0  0  0  0  0  0  0  0  0
  -16.6907    8.1636    0.3868 C   0  0  0  0  0  0  0  0  0  0  0  0
  -17.9410    7.6273    0.2352 N   0  0  0  0  0  0  0  0  0  0  0  0
  -18.0327    6.9623   -0.9650 C   0  0  0  0  0  0  0  0  0  0  0  0
  -19.1097    6.2733   -1.5359 C   0  0  0  0  0  0  0  0  0  0  0  0
  -18.9105    5.6830   -2.7875 C   0  0  0  0  0  0  0  0  0  0  0  0
  -17.6833    5.7791   -3.4391 C   0  0  0  0  0  0  0  0  0  0  0  0
  -16.6171    6.4719   -2.8542 C   0  0  0  0  0  0  0  0  0  0  0  0
  -16.7922    7.0769   -1.5924 C   0  0  0  0  0  0  0  0  0  0  0  0
  1  2  1  0
  2  3  1  0
  3  4  1  0
  4  5  2  0
  4  6  1  0
  6  7  1  0
  7  8  2  0
  7  9  1  0
  9 10  1  0
 10 11  1  0
 11 12  2  0
 12 13  1  0
 13 14  1  0
 14 15  2  0
 15 16  1  0
 16 17  2  0
 17 18  1  0
 18 19  2  0
 19 11  1  0
 19 14  1  0
M  END
$$$$
