
     RDKit          3D

 15 16  0  0  0  0  0  0  0  0999 V2000
    4.9996   -1.2476   12.4620 N   0  0  0  0  0  0  0  0  0  0  0  0
    5.4111   -2.6162   12.1654 C   0  0  0  0  0  0  0  0  0  0  0  0
    4.2381   -3.5859   12.3168 C   0  0  0  0  0  0  0  0  0  0  0  0
    4.6629   -5.0222   12.0047 C   0  0  0  0  0  0  0  0  0  0  0  0
    3.5986   -6.0805   12.3248 C   0  0  0  0  0  0  0  0  0  0  0  0
    2.4017   -6.1109   11.3695 C   0  0  0  0  0  0  0  0  0  0  0  0
    1.3955   -5.0431   11.6331 C   0  0  0  0  0  0  0  0  0  0  0  0
    0.9580   -4.6377   12.8078 N   0  0  0  0  0  0  0  0  0  0  0  0
    0.0543   -3.6380   12.5444 C   0  0  0  0  0  0  0  0  0  0  0  0
   -0.7005   -2.8538   13.4279 C   0  0  0  0  0  0  0  0  0  0  0  0
   -1.5608   -1.8840   12.8973 C   0  0  0  0  0  0  0  0  0  0  0  0
   -1.6670   -1.7003   11.5161 C   0  0  0  0  0  0  0  0  0  0  0  0
   -0.9219   -2.4749   10.6189 C   0  0  0  0  0  0  0  0  0  0  0  0
   -0.0725   -3.4330   11.1758 C   0  0  0  0  0  0  0  0  0  0  0  0
    0.7832   -4.3473   10.6183 N   0  0  0  0  0  0  0  0  0  0  0  0
  1  2  1  0
  2  3  1  0
  3  4  1  0
  4  5  1  0
  5  6  1  0
  6  7  1  0
  7  8  2  0
  8  9  1  0
  9 10  2  0
 10 11  1  0
 11 12  2  0
 12 13  1  0
 13 14  2  0
 14 15  1  0
 15  7  1  0
 14  9  1  0
M  END
$$$$
