
     RDKit          3D

 19 20  0  0  0  0  0  0  0  0999 V2000
  -13.7583    1.6933   -8.2195 C   0  0  0  0  0  0  0  0  0  0  0  0
  -14.0151    0.7808   -9.3002 N   0  0  0  0  0  0  0  0  0  0  0  0
  -12.9730    0.1908   -9.9837 C   0  0  0  0  0  0  0  0  0  0  0  0
  -11.7945    0.5027   -9.8369 O   0  0  0  0  0  0  0  0  0  0  0  0
  -13.4242   -0.8799  -10.9563 C   0  0  0  0  0  0  0  0  0  0  0  0
  -13.5812   -2.2369  -10.3062 C   0  0  0  0  0  0  0  0  0  0  0  0
  -12.5356   -3.1665  -10.4527 C   0  0  0  0  0  0  0  0  0  0  0  0
  -12.6205   -4.4428   -9.8947 C   0  0  0  0  0  0  0  0  0  0  0  0
  -13.7573   -4.8123   -9.1861 C   0  0  0  0  0  0  0  0  0  0  0  0
  -13.9845   -6.0320   -8.6081 O   0  0  0  0  0  0  0  0  0  0  0  0
  -12.9470   -6.9982   -8.7204 C   0  0  0  0  0  0  0  0  0  0  0  0
  -14.7947   -3.8867   -9.0244 C   0  0  0  0  0  0  0  0  0  0  0  0
  -14.7219   -2.5829   -9.5480 C   0  0  0  0  0  0  0  0  0  0  0  0
  -15.7690   -1.6422   -9.3786 N   0  0  0  0  0  0  0  0  0  0  0  0
  -16.8082   -1.8252  -10.4063 C   0  0  0  0  0  0  0  0  0  0  0  0
  -17.6418   -0.5436  -10.4917 C   0  0  0  0  0  0  0  0  0  0  0  0
  -17.8572    0.1277   -9.1320 C   0  0  0  0  0  0  0  0  0  0  0  0
  -17.6844   -0.8578   -7.9839 C   0  0  0  0  0  0  0  0  0  0  0  0
  -16.3098   -1.5411   -8.0004 C   0  0  0  0  0  0  0  0  0  0  0  0
  1  2  1  0
  2  3  1  0
  3  4  2  0
  3  5  1  0
  5  6  1  0
  6  7  2  0
  7  8  1  0
  8  9  2  0
  9 10  1  0
 10 11  1  0
  9 12  1  0
 12 13  2  0
 13 14  1  0
 14 15  1  0
 15 16  1  0
 16 17  1  0
 17 18  1  0
 18 19  1  0
 13  6  1  0
 19 14  1  0
M  END
$$$$
