
     RDKit          3D

 19 20  0  0  0  0  0  0  0  0999 V2000
    5.0045   -5.1834  -13.6859 N   0  0  0  0  0  0  0  0  0  0  0  0
    5.5116   -5.7011  -14.9514 C   0  0  0  0  0  0  0  0  0  0  0  0
    5.5416   -4.6221  -16.0236 C   0  0  0  0  0  0  0  0  0  0  0  0
    4.1495   -4.2417  -16.4838 C   0  0  0  0  0  0  0  0  0  0  0  0
    3.3927   -5.0619  -17.0075 O   0  0  0  0  0  0  0  0  0  0  0  0
    3.7209   -2.8147  -16.2940 C   0  0  0  0  0  0  0  0  0  0  0  0
    3.2852   -2.5076  -14.8882 C   0  0  0  0  0  0  0  0  0  0  0  0
    4.0786   -2.0315  -14.0733 O   0  0  0  0  0  0  0  0  0  0  0  0
    1.8549   -2.8235  -14.5115 C   0  0  0  0  0  0  0  0  0  0  0  0
    1.7629   -4.1293  -13.7365 C   0  0  0  0  0  0  0  0  0  0  0  0
    0.3426   -4.5158  -13.4717 C   0  0  0  0  0  0  0  0  0  0  0  0
   -0.4040   -4.1959  -12.3550 C   0  0  0  0  0  0  0  0  0  0  0  0
   -1.6543   -4.7322  -12.5067 N   0  0  0  0  0  0  0  0  0  0  0  0
   -1.7460   -5.3972  -13.7069 C   0  0  0  0  0  0  0  0  0  0  0  0
   -2.8229   -6.0862  -14.2778 C   0  0  0  0  0  0  0  0  0  0  0  0
   -2.6238   -6.6765  -15.5294 C   0  0  0  0  0  0  0  0  0  0  0  0
   -1.3966   -6.5804  -16.1810 C   0  0  0  0  0  0  0  0  0  0  0  0
   -0.3304   -5.8876  -15.5961 C   0  0  0  0  0  0  0  0  0  0  0  0
   -0.5055   -5.2826  -14.3343 C   0  0  0  0  0  0  0  0  0  0  0  0
  1  2  1  0
  2  3  1  0
  3  4  1  0
  4  5  2  0
  4  6  1  0
  6  7  1  0
  7  8  2  0
  7  9  1  0
  9 10  1  0
 10 11  1  0
 11 12  2  0
 12 13  1  0
 13 14  1  0
 14 15  2  0
 15 16  1  0
 16 17  2  0
 17 18  1  0
 18 19  2  0
 19 11  1  0
 19 14  1  0
M  END
$$$$
