
     RDKit          3D

 31 34  0  0  0  0  0  0  0  0999 V2000
    1.9638   -4.0693   -0.6736 N   0  0  0  0  0  0  0  0  0  0  0  0
    1.7402   -5.3962   -0.2256 C   0  0  0  0  0  0  0  0  0  0  0  0
    1.8857   -5.6897    1.1308 C   0  0  0  0  0  0  0  0  0  0  0  0
    1.6256   -6.9793    1.5617 C   0  0  0  0  0  0  0  0  0  0  0  0
    1.2131   -7.9729    0.7533 N   0  0  0  0  0  0  0  0  0  0  0  0
    1.0163   -7.6387   -0.5490 C   0  0  0  0  0  0  0  0  0  0  0  0
    1.2215   -6.3713   -1.1064 C   0  0  0  0  0  0  0  0  0  0  0  0
    0.9541   -6.0498   -2.4477 N   0  0  0  0  0  0  0  0  0  0  0  0
    1.2356   -7.0290   -3.4929 C   0  0  0  0  0  0  0  0  0  0  0  0
    2.3068   -7.8862   -3.1308 O   0  0  0  0  0  0  0  0  0  0  0  0
    1.6661   -6.2727   -4.7447 C   0  0  0  0  0  0  0  0  0  0  0  0
    0.8574   -5.0171   -4.9180 C   0  0  0  0  0  0  0  0  0  0  0  0
    1.1867   -4.1546   -5.7352 O   0  0  0  0  0  0  0  0  0  0  0  0
   -0.4416   -4.9176   -4.1705 C   0  0  0  0  0  0  0  0  0  0  0  0
   -0.2593   -5.2033   -2.6705 C   0  0  0  0  0  0  0  0  0  0  0  0
   -1.6034   -5.8180   -2.1555 C   0  0  0  0  0  0  0  0  0  0  0  0
   -1.7316   -5.8930   -0.6972 N   0  0  0  0  0  0  0  0  0  0  0  0
   -3.0959   -6.2226   -0.2669 C   0  0  0  0  0  0  0  0  0  0  0  0
   -3.5145   -7.6402   -0.6097 C   0  0  0  0  0  0  0  0  0  0  0  0
   -2.6761   -8.7006   -0.2060 C   0  0  0  0  0  0  0  0  0  0  0  0
   -2.9855  -10.0214   -0.5178 C   0  0  0  0  0  0  0  0  0  0  0  0
   -4.1454  -10.2979   -1.2215 C   0  0  0  0  0  0  0  0  0  0  0  0
   -4.4202  -11.6035   -1.5057 O   0  0  0  0  0  0  0  0  0  0  0  0
   -5.0051   -9.2725   -1.6127 C   0  0  0  0  0  0  0  0  0  0  0  0
   -4.7072   -7.9280   -1.3122 C   0  0  0  0  0  0  0  0  0  0  0  0
   -5.5929   -6.8871   -1.6627 N   0  0  0  0  0  0  0  0  0  0  0  0
   -6.5871   -6.6343   -0.5986 C   0  0  0  0  0  0  0  0  0  0  0  0
   -7.8559   -5.9730   -1.1524 C   0  0  0  0  0  0  0  0  0  0  0  0
   -7.5359   -4.9455   -2.2323 C   0  0  0  0  0  0  0  0  0  0  0  0
   -6.6906   -5.5428   -3.3649 C   0  0  0  0  0  0  0  0  0  0  0  0
   -6.1201   -6.9219   -3.0273 C   0  0  0  0  0  0  0  0  0  0  0  0
  1  2  1  0
  2  3  2  0
  3  4  1  0
  4  5  2  0
  5  6  1  0
  6  7  2  0
  7  8  1  0
  8  9  1  0
  9 10  1  0
  9 11  1  0
 11 12  1  0
 12 13  2  0
 12 14  1  0
 14 15  1  0
 15 16  1  0
 16 17  1  0
 17 18  1  0
 18 19  1  0
 19 20  2  0
 20 21  1  0
 21 22  2  0
 22 23  1  0
 22 24  1  0
 24 25  2  0
 25 26  1  0
 26 27  1  0
 27 28  1  0
 28 29  1  0
 29 30  1  0
 30 31  1  0
  7  2  1  0
 15  8  1  0
 25 19  1  0
 31 26  1  0
M  END
$$$$
