
     RDKit          3D

 19 20  0  0  0  0  0  0  0  0999 V2000
   32.7843   -3.6111  -11.1549 N   0  0  0  0  0  0  0  0  0  0  0  0
   32.1450   -2.2962  -11.1665 C   0  0  0  0  0  0  0  0  0  0  0  0
   31.4951   -1.9492   -9.8344 C   0  0  0  0  0  0  0  0  0  0  0  0
   30.1659   -2.6506   -9.6416 C   0  0  0  0  0  0  0  0  0  0  0  0
   30.0079   -3.4675   -8.7311 O   0  0  0  0  0  0  0  0  0  0  0  0
   29.0526   -2.3214  -10.6218 C   0  0  0  0  0  0  0  0  0  0  0  0
   27.6751   -2.5159  -10.0024 C   0  0  0  0  0  0  0  0  0  0  0  0
   27.4054   -1.5194   -8.8884 C   0  0  0  0  0  0  0  0  0  0  0  0
   28.1390   -0.5462   -8.7004 O   0  0  0  0  0  0  0  0  0  0  0  0
   26.1715   -1.7643   -8.0400 C   0  0  0  0  0  0  0  0  0  0  0  0
   24.9213   -1.4806   -8.8017 C   0  0  0  0  0  0  0  0  0  0  0  0
   24.3817   -0.2335   -9.0433 C   0  0  0  0  0  0  0  0  0  0  0  0
   23.2421   -0.3927   -9.7828 N   0  0  0  0  0  0  0  0  0  0  0  0
   23.0286   -1.7212  -10.0461 C   0  0  0  0  0  0  0  0  0  0  0  0
   22.0034   -2.3398  -10.7712 C   0  0  0  0  0  0  0  0  0  0  0  0
   22.0379   -3.7354  -10.8862 C   0  0  0  0  0  0  0  0  0  0  0  0
   23.0580   -4.4757  -10.2973 C   0  0  0  0  0  0  0  0  0  0  0  0
   24.0726   -3.8412   -9.5703 C   0  0  0  0  0  0  0  0  0  0  0  0
   24.0622   -2.4337   -9.4400 C   0  0  0  0  0  0  0  0  0  0  0  0
  1  2  1  0
  2  3  1  0
  3  4  1  0
  4  5  2  0
  4  6  1  0
  6  7  1  0
  7  8  1  0
  8  9  2  0
  8 10  1  0
 10 11  1  0
 11 12  2  0
 12 13  1  0
 13 14  1  0
 14 15  2  0
 15 16  1  0
 16 17  2  0
 17 18  1  0
 18 19  2  0
 19 11  1  0
 19 14  1  0
M  END
$$$$
