
     RDKit          3D

 19 20  0  0  0  0  0  0  0  0999 V2000
   10.7590    4.9163  -12.2508 N   0  0  0  0  0  0  0  0  0  0  0  0
   11.2661    4.3987  -13.5163 C   0  0  0  0  0  0  0  0  0  0  0  0
   11.2961    5.4776  -14.5885 C   0  0  0  0  0  0  0  0  0  0  0  0
    9.9040    5.8581  -15.0487 C   0  0  0  0  0  0  0  0  0  0  0  0
    9.1473    5.0379  -15.5724 O   0  0  0  0  0  0  0  0  0  0  0  0
    9.4754    7.2851  -14.8589 C   0  0  0  0  0  0  0  0  0  0  0  0
    9.0397    7.5922  -13.4531 C   0  0  0  0  0  0  0  0  0  0  0  0
    9.8331    8.0682  -12.6381 O   0  0  0  0  0  0  0  0  0  0  0  0
    7.6095    7.2763  -13.0764 C   0  0  0  0  0  0  0  0  0  0  0  0
    7.5174    5.9704  -12.3013 C   0  0  0  0  0  0  0  0  0  0  0  0
    6.0971    5.5840  -12.0366 C   0  0  0  0  0  0  0  0  0  0  0  0
    5.3505    5.9039  -10.9199 C   0  0  0  0  0  0  0  0  0  0  0  0
    4.1002    5.3676  -11.0715 N   0  0  0  0  0  0  0  0  0  0  0  0
    4.0085    4.7026  -12.2718 C   0  0  0  0  0  0  0  0  0  0  0  0
    2.9316    4.0136  -12.8426 C   0  0  0  0  0  0  0  0  0  0  0  0
    3.1308    3.4233  -14.0943 C   0  0  0  0  0  0  0  0  0  0  0  0
    4.3580    3.5194  -14.7459 C   0  0  0  0  0  0  0  0  0  0  0  0
    5.4242    4.2122  -14.1609 C   0  0  0  0  0  0  0  0  0  0  0  0
    5.2490    4.8171  -12.8991 C   0  0  0  0  0  0  0  0  0  0  0  0
  1  2  1  0
  2  3  1  0
  3  4  1  0
  4  5  2  0
  4  6  1  0
  6  7  1  0
  7  8  2  0
  7  9  1  0
  9 10  1  0
 10 11  1  0
 11 12  2  0
 12 13  1  0
 13 14  1  0
 14 15  2  0
 15 16  1  0
 16 17  2  0
 17 18  1  0
 18 19  2  0
 19 11  1  0
 19 14  1  0
M  END
$$$$
