
     RDKit          3D

 15 16  0  0  0  0  0  0  0  0999 V2000
   30.6675    8.9593   25.1378 N   0  0  0  0  0  0  0  0  0  0  0  0
   31.0087    8.0715   26.2537 C   0  0  0  0  0  0  0  0  0  0  0  0
   31.1578    6.6207   25.7785 C   0  0  0  0  0  0  0  0  0  0  0  0
   31.3563    5.6403   26.9184 C   0  0  0  0  0  0  0  0  0  0  0  0
   30.3225    4.7220   27.1780 C   0  0  0  0  0  0  0  0  0  0  0  0
   30.4374    3.8503   28.2468 C   0  0  0  0  0  0  0  0  0  0  0  0
   31.4961    3.8253   29.0727 N   0  0  0  0  0  0  0  0  0  0  0  0
   32.4851    4.7137   28.8022 C   0  0  0  0  0  0  0  0  0  0  0  0
   32.4972    5.6423   27.7492 C   0  0  0  0  0  0  0  0  0  0  0  0
   33.5670    6.5179   27.5286 N   0  0  0  0  0  0  0  0  0  0  0  0
   34.2952    7.0321   28.6956 C   0  0  0  0  0  0  0  0  0  0  0  0
   35.2947    8.0909   28.2384 C   0  0  0  0  0  0  0  0  0  0  0  0
   36.3310    7.5061   27.2769 C   0  0  0  0  0  0  0  0  0  0  0  0
   35.8506    6.2212   26.6022 C   0  0  0  0  0  0  0  0  0  0  0  0
   34.3526    6.2587   26.3073 C   0  0  0  0  0  0  0  0  0  0  0  0
  1  2  1  0
  2  3  1  0
  3  4  1  0
  4  5  2  0
  5  6  1  0
  6  7  2  0
  7  8  1  0
  8  9  2  0
  9 10  1  0
 10 11  1  0
 11 12  1  0
 12 13  1  0
 13 14  1  0
 14 15  1  0
  9  4  1  0
 15 10  1  0
M  END
$$$$
