
     RDKit          3D

 26 28  0  0  0  0  0  0  0  0999 V2000
   -9.5672   19.4768   13.7260 C   0  0  0  0  0  0  0  0  0  0  0  0
  -10.0405   18.6492   12.6468 N   0  0  0  0  0  0  0  0  0  0  0  0
  -10.1485   17.2777   12.7956 C   0  0  0  0  0  0  0  0  0  0  0  0
   -9.9579   16.7135   13.8692 O   0  0  0  0  0  0  0  0  0  0  0  0
  -10.5648   16.5638   11.5212 C   0  0  0  0  0  0  0  0  0  0  0  0
  -10.0236   15.1576   11.3829 C   0  0  0  0  0  0  0  0  0  0  0  0
  -10.7658   14.1147   11.9738 C   0  0  0  0  0  0  0  0  0  0  0  0
  -10.4070   12.7777   11.8004 C   0  0  0  0  0  0  0  0  0  0  0  0
   -9.3041   12.4594   11.0206 C   0  0  0  0  0  0  0  0  0  0  0  0
   -8.8465   11.1992   10.7463 O   0  0  0  0  0  0  0  0  0  0  0  0
   -9.5476   10.1189   11.3492 C   0  0  0  0  0  0  0  0  0  0  0  0
   -8.5567   13.4932   10.4469 C   0  0  0  0  0  0  0  0  0  0  0  0
   -8.8650   14.8542   10.6408 C   0  0  0  0  0  0  0  0  0  0  0  0
   -8.0402   15.8242   10.0842 N   0  0  0  0  0  0  0  0  0  0  0  0
   -7.9624   15.9283    8.6386 C   0  0  0  0  0  0  0  0  0  0  0  0
   -9.1422   16.5704    8.1681 O   0  0  0  0  0  0  0  0  0  0  0  0
   -6.7512   16.7475    8.1901 C   0  0  0  0  0  0  0  0  0  0  0  0
   -6.6945   18.1226    8.8635 C   0  0  0  0  0  0  0  0  0  0  0  0
   -7.3266   18.1139   10.2592 C   0  0  0  0  0  0  0  0  0  0  0  0
   -7.2275   16.7147   10.9305 C   0  0  0  0  0  0  0  0  0  0  0  0
   -5.7951   16.4206   11.2104 N   0  0  0  0  0  0  0  0  0  0  0  0
   -5.5802   15.0318   11.6132 C   0  0  0  0  0  0  0  0  0  0  0  0
   -4.0828   14.7026   11.6939 C   0  0  0  0  0  0  0  0  0  0  0  0
   -3.2411   15.8236   12.2980 C   0  0  0  0  0  0  0  0  0  0  0  0
   -4.1136   16.7852   13.0831 C   0  0  0  0  0  0  0  0  0  0  0  0
   -5.2294   17.3607   12.2014 C   0  0  0  0  0  0  0  0  0  0  0  0
  1  2  1  0
  2  3  1  0
  3  4  2  0
  3  5  1  0
  5  6  1  0
  6  7  2  0
  7  8  1  0
  8  9  2  0
  9 10  1  0
 10 11  1  0
  9 12  1  0
 12 13  2  0
 13 14  1  0
 14 15  1  0
 15 16  1  0
 15 17  1  0
 17 18  1  0
 18 19  1  0
 19 20  1  0
 20 21  1  0
 21 22  1  0
 22 23  1  0
 23 24  1  0
 24 25  1  0
 25 26  1  0
 13  6  1  0
 20 14  1  0
 26 21  1  0
M  END
$$$$
