
     RDKit          3D

 28 30  0  0  0  0  0  0  0  0999 V2000
  -47.7123    2.9116   10.2725 N   0  0  0  0  0  0  0  0  0  0  0  0
  -46.7665    3.7881   10.7153 C   0  0  0  0  0  0  0  0  0  0  0  0
  -45.5879    3.4508   10.7564 O   0  0  0  0  0  0  0  0  0  0  0  0
  -47.2026    5.1600   11.1302 C   0  0  0  0  0  0  0  0  0  0  0  0
  -46.1721    6.1000   11.3200 C   0  0  0  0  0  0  0  0  0  0  0  0
  -46.4591    7.4125   11.6953 C   0  0  0  0  0  0  0  0  0  0  0  0
  -47.7812    7.7934   11.8851 C   0  0  0  0  0  0  0  0  0  0  0  0
  -48.1444    9.4142   12.3371 Cl  0  0  0  0  0  0  0  0  0  0  0  0
  -48.8202    6.8748   11.7130 C   0  0  0  0  0  0  0  0  0  0  0  0
  -48.5440    5.5486   11.3426 C   0  0  0  0  0  0  0  0  0  0  0  0
  -49.5179    4.5975   11.1664 O   0  0  0  0  0  0  0  0  0  0  0  0
  -50.8397    4.9027   11.6001 C   0  0  0  0  0  0  0  0  0  0  0  0
  -51.5878    3.6667   11.4421 N   0  0  0  0  0  0  0  0  0  0  0  0
  -53.2628    3.7993   11.6099 S   0  0  0  0  0  0  0  0  0  0  0  0
  -53.6943    2.4723   11.9917 O   0  0  0  0  0  0  0  0  0  0  0  0
  -53.4797    4.9659   12.4377 O   0  0  0  0  0  0  0  0  0  0  0  0
  -53.8402    4.1006    9.9631 C   0  0  0  0  0  0  0  0  0  0  0  0
  -52.9784    3.8781    8.8822 C   0  0  0  0  0  0  0  0  0  0  0  0
  -53.4346    4.1720    7.6123 C   0  0  0  0  0  0  0  0  0  0  0  0
  -54.6618    4.6612    7.3599 N   0  0  0  0  0  0  0  0  0  0  0  0
  -55.4753    4.8470    8.4277 C   0  0  0  0  0  0  0  0  0  0  0  0
  -55.1382    4.5864    9.7594 C   0  0  0  0  0  0  0  0  0  0  0  0
  -56.0516    4.7483   10.8066 N   0  0  0  0  0  0  0  0  0  0  0  0
  -56.6583    6.0849   10.9500 C   0  0  0  0  0  0  0  0  0  0  0  0
  -58.1704    6.0413   10.7507 C   0  0  0  0  0  0  0  0  0  0  0  0
  -58.8440    5.0731   11.7249 C   0  0  0  0  0  0  0  0  0  0  0  0
  -57.9602    3.8750   12.0763 C   0  0  0  0  0  0  0  0  0  0  0  0
  -56.9456    3.5874   10.9747 C   0  0  0  0  0  0  0  0  0  0  0  0
  1  2  1  0
  2  3  2  0
  2  4  1  0
  4  5  2  0
  5  6  1  0
  6  7  2  0
  7  8  1  0
  7  9  1  0
  9 10  2  0
 10 11  1  0
 11 12  1  0
 12 13  1  0
 13 14  1  0
 14 15  2  0
 14 16  2  0
 14 17  1  0
 17 18  2  0
 18 19  1  0
 19 20  2  0
 20 21  1  0
 21 22  2  0
 22 23  1  0
 23 24  1  0
 24 25  1  0
 25 26  1  0
 26 27  1  0
 27 28  1  0
 10  4  1  0
 22 17  1  0
 28 23  1  0
M  END
$$$$
