
     RDKit          3D

 31 34  0  0  0  0  0  0  0  0999 V2000
  -22.3833   -1.3299  -22.3094 N   0  0  0  0  0  0  0  0  0  0  0  0
  -21.9698   -2.6604  -21.8436 C   0  0  0  0  0  0  0  0  0  0  0  0
  -22.5394   -3.7989  -22.7041 C   0  0  0  0  0  0  0  0  0  0  0  0
  -23.9502   -4.1989  -22.3216 C   0  0  0  0  0  0  0  0  0  0  0  0
  -25.0015   -3.3344  -22.6701 C   0  0  0  0  0  0  0  0  0  0  0  0
  -26.3045   -3.6907  -22.3711 C   0  0  0  0  0  0  0  0  0  0  0  0
  -26.6378   -4.8445  -21.7656 N   0  0  0  0  0  0  0  0  0  0  0  0
  -25.6126   -5.6682  -21.4397 C   0  0  0  0  0  0  0  0  0  0  0  0
  -24.2492   -5.4114  -21.6681 C   0  0  0  0  0  0  0  0  0  0  0  0
  -23.2249   -6.2890  -21.2592 N   0  0  0  0  0  0  0  0  0  0  0  0
  -23.4013   -7.7062  -21.6214 C   0  0  0  0  0  0  0  0  0  0  0  0
  -24.0993   -8.4950  -20.5269 C   0  0  0  0  0  0  0  0  0  0  0  0
  -24.8105   -9.4702  -20.7681 O   0  0  0  0  0  0  0  0  0  0  0  0
  -23.8753   -8.0238  -19.1122 C   0  0  0  0  0  0  0  0  0  0  0  0
  -22.5816   -7.2274  -19.0458 C   0  0  0  0  0  0  0  0  0  0  0  0
  -22.6325   -5.9631  -19.9438 C   0  0  0  0  0  0  0  0  0  0  0  0
  -21.3053   -5.3508  -20.0049 N   0  0  0  0  0  0  0  0  0  0  0  0
  -20.8382   -4.7857  -18.7350 C   0  0  0  0  0  0  0  0  0  0  0  0
  -19.5367   -3.9768  -18.9302 C   0  0  0  0  0  0  0  0  0  0  0  0
  -18.5439   -4.7343  -19.7045 N   0  0  0  0  0  0  0  0  0  0  0  0
  -17.2510   -4.0406  -19.7826 C   0  0  0  0  0  0  0  0  0  0  0  0
  -17.2233   -2.8486  -20.7537 C   0  0  0  0  0  0  0  0  0  0  0  0
  -15.8921   -2.1620  -20.7632 C   0  0  0  0  0  0  0  0  0  0  0  0
  -15.5809   -0.9818  -20.1171 C   0  0  0  0  0  0  0  0  0  0  0  0
  -14.2647   -0.6936  -20.3579 N   0  0  0  0  0  0  0  0  0  0  0  0
  -13.6982   -1.6700  -21.1441 C   0  0  0  0  0  0  0  0  0  0  0  0
  -12.3866   -1.7971  -21.6208 C   0  0  0  0  0  0  0  0  0  0  0  0
  -12.0885   -2.9119  -22.4098 C   0  0  0  0  0  0  0  0  0  0  0  0
  -13.0653   -3.8579  -22.7112 C   0  0  0  0  0  0  0  0  0  0  0  0
  -14.3719   -3.7147  -22.2268 C   0  0  0  0  0  0  0  0  0  0  0  0
  -14.6981   -2.6015  -21.4238 C   0  0  0  0  0  0  0  0  0  0  0  0
  1  2  1  0
  2  3  1  0
  3  4  1  0
  4  5  2  0
  5  6  1  0
  6  7  2  0
  7  8  1  0
  8  9  2  0
  9 10  1  0
 10 11  1  0
 11 12  1  0
 12 13  2  0
 12 14  1  0
 14 15  1  0
 15 16  1  0
 16 17  1  0
 17 18  1  0
 18 19  1  0
 19 20  1  0
 20 21  1  0
 21 22  1  0
 22 23  1  0
 23 24  2  0
 24 25  1  0
 25 26  1  0
 26 27  2  0
 27 28  1  0
 28 29  2  0
 29 30  1  0
 30 31  2  0
  9  4  1  0
 16 10  1  0
 31 23  1  0
 31 26  1  0
M  END
$$$$
