
     RDKit          3D

 16 17  0  0  0  0  0  0  0  0999 V2000
  -10.9093   14.0466    5.7072 N   0  0  0  0  0  0  0  0  0  0  0  0
  -10.2184   13.0398    5.0889 C   0  0  0  0  0  0  0  0  0  0  0  0
   -9.5199   13.2506    4.1079 O   0  0  0  0  0  0  0  0  0  0  0  0
  -10.3907   11.6914    5.6786 C   0  0  0  0  0  0  0  0  0  0  0  0
  -11.7141   11.2106    5.7528 C   0  0  0  0  0  0  0  0  0  0  0  0
  -11.9710    9.9255    6.2239 C   0  0  0  0  0  0  0  0  0  0  0  0
  -10.9081    9.1231    6.6087 C   0  0  0  0  0  0  0  0  0  0  0  0
  -11.1478    7.8839    7.0570 F   0  0  0  0  0  0  0  0  0  0  0  0
   -9.5976    9.5858    6.5371 C   0  0  0  0  0  0  0  0  0  0  0  0
   -9.3035   10.8853    6.0815 C   0  0  0  0  0  0  0  0  0  0  0  0
   -7.9468   11.2457    6.0831 N   0  0  0  0  0  0  0  0  0  0  0  0
   -7.5793   12.5446    6.6467 C   0  0  0  0  0  0  0  0  0  0  0  0
   -6.1014   12.4979    7.0453 C   0  0  0  0  0  0  0  0  0  0  0  0
   -5.2215   11.8031    5.9997 C   0  0  0  0  0  0  0  0  0  0  0  0
   -5.9399   11.6365    4.6649 C   0  0  0  0  0  0  0  0  0  0  0  0
   -7.2652   10.8837    4.8251 C   0  0  0  0  0  0  0  0  0  0  0  0
  1  2  1  0
  2  3  2  0
  2  4  1  0
  4  5  2  0
  5  6  1  0
  6  7  2  0
  7  8  1  0
  7  9  1  0
  9 10  2  0
 10 11  1  0
 11 12  1  0
 12 13  1  0
 13 14  1  0
 14 15  1  0
 15 16  1  0
 10  4  1  0
 16 11  1  0
M  END
$$$$
