
     RDKit          3D

 26 29  0  0  0  0  0  0  0  0999 V2000
   -3.9019   17.7065  -25.1593 N   0  0  0  0  0  0  0  0  0  0  0  0
   -3.3255   18.4135  -24.0756 C   0  0  0  0  0  0  0  0  0  0  0  0
   -3.2985   19.8061  -24.0913 C   0  0  0  0  0  0  0  0  0  0  0  0
   -2.6359   20.4634  -23.0691 C   0  0  0  0  0  0  0  0  0  0  0  0
   -1.9818   19.8362  -22.0705 N   0  0  0  0  0  0  0  0  0  0  0  0
   -1.9785   18.4803  -22.1082 C   0  0  0  0  0  0  0  0  0  0  0  0
   -2.6132   17.7062  -23.0816 C   0  0  0  0  0  0  0  0  0  0  0  0
   -2.5550   16.2969  -23.1543 N   0  0  0  0  0  0  0  0  0  0  0  0
   -2.6842   15.5702  -21.8821 C   0  0  0  0  0  0  0  0  0  0  0  0
   -2.3923   14.0739  -22.0575 C   0  0  0  0  0  0  0  0  0  0  0  0
   -2.6072   13.6092  -23.4910 C   0  0  0  0  0  0  0  0  0  0  0  0
   -1.7566   14.4118  -24.4840 C   0  0  0  0  0  0  0  0  0  0  0  0
   -1.4529   15.8461  -24.0120 C   0  0  0  0  0  0  0  0  0  0  0  0
   -0.2387   15.8591  -23.2577 O   0  0  0  0  0  0  0  0  0  0  0  0
    0.9100   16.1947  -24.0436 C   0  0  0  0  0  0  0  0  0  0  0  0
    1.0773   17.7158  -24.1812 C   0  0  0  0  0  0  0  0  0  0  0  0
    2.1150   18.0656  -25.1449 N   0  0  0  0  0  0  0  0  0  0  0  0
    3.4165   18.1475  -24.6348 C   0  0  0  0  0  0  0  0  0  0  0  0
    3.8300   17.3341  -23.6270 N   0  0  0  0  0  0  0  0  0  0  0  0
    5.1018   17.4408  -23.1805 C   0  0  0  0  0  0  0  0  0  0  0  0
    6.0715   18.2767  -23.6037 N   0  0  0  0  0  0  0  0  0  0  0  0
    5.6156   19.0577  -24.5922 C   0  0  0  0  0  0  0  0  0  0  0  0
    6.3086   20.0234  -25.2618 N   0  0  0  0  0  0  0  0  0  0  0  0
    5.4602   20.5778  -26.1819 C   0  0  0  0  0  0  0  0  0  0  0  0
    4.2649   20.0267  -26.1440 N   0  0  0  0  0  0  0  0  0  0  0  0
    4.3514   19.0655  -25.1537 C   0  0  0  0  0  0  0  0  0  0  0  0
  1  2  1  0
  2  3  2  0
  3  4  1  0
  4  5  2  0
  5  6  1  0
  6  7  2  0
  7  8  1  0
  8  9  1  0
  9 10  1  0
 10 11  1  0
 11 12  1  0
 12 13  1  0
 13 14  1  0
 14 15  1  0
 15 16  1  0
 16 17  1  0
 17 18  1  0
 18 19  2  0
 19 20  1  0
 20 21  2  0
 21 22  1  0
 22 23  1  0
 23 24  1  0
 24 25  2  0
 25 26  1  0
  7  2  1  0
 13  8  1  0
 26 18  1  0
 26 22  2  0
M  END
$$$$
