
     RDKit          3D

 23 25  0  0  0  0  0  0  0  0999 V2000
   20.6134   -4.0518   22.8226 N   0  0  0  0  0  0  0  0  0  0  0  0
   20.6794   -3.1774   23.9924 C   0  0  0  0  0  0  0  0  0  0  0  0
   22.0321   -2.4769   24.0540 C   0  0  0  0  0  0  0  0  0  0  0  0
   22.0716   -1.5128   25.2192 C   0  0  0  0  0  0  0  0  0  0  0  0
   21.5323   -1.7346   26.2990 O   0  0  0  0  0  0  0  0  0  0  0  0
   22.7613   -0.2179   25.0216 C   0  0  0  0  0  0  0  0  0  0  0  0
   21.9704    0.9238   25.1715 C   0  0  0  0  0  0  0  0  0  0  0  0
   22.5634    2.1547   24.9788 C   0  0  0  0  0  0  0  0  0  0  0  0
   23.8641    2.3100   24.6618 N   0  0  0  0  0  0  0  0  0  0  0  0
   24.6119    1.1894   24.5587 C   0  0  0  0  0  0  0  0  0  0  0  0
   24.1255   -0.1053   24.7244 C   0  0  0  0  0  0  0  0  0  0  0  0
   25.0805   -1.2641   24.6179 C   0  0  0  0  0  0  0  0  0  0  0  0
   25.4497   -1.5900   23.1621 C   0  0  0  0  0  0  0  0  0  0  0  0
   26.3064   -2.7706   23.0794 N   0  0  0  0  0  0  0  0  0  0  0  0
   27.5931   -2.6875   23.4800 C   0  0  0  0  0  0  0  0  0  0  0  0
   28.1923   -3.4752   24.3359 N   0  0  0  0  0  0  0  0  0  0  0  0
   29.4839   -3.0117   24.4146 C   0  0  0  0  0  0  0  0  0  0  0  0
   30.5578   -3.4721   25.1899 C   0  0  0  0  0  0  0  0  0  0  0  0
   31.7922   -2.8181   25.0829 C   0  0  0  0  0  0  0  0  0  0  0  0
   31.9542   -1.7304   24.2205 C   0  0  0  0  0  0  0  0  0  0  0  0
   30.8947   -1.2572   23.4372 C   0  0  0  0  0  0  0  0  0  0  0  0
   29.6757   -1.9251   23.5675 C   0  0  0  0  0  0  0  0  0  0  0  0
   28.4537   -1.7519   22.9715 N   0  0  0  0  0  0  0  0  0  0  0  0
  1  2  1  0
  2  3  1  0
  3  4  1  0
  4  5  2  0
  4  6  1  0
  6  7  2  0
  7  8  1  0
  8  9  2  0
  9 10  1  0
 10 11  2  0
 11 12  1  0
 12 13  1  0
 13 14  1  0
 14 15  1  0
 15 16  2  0
 16 17  1  0
 17 18  2  0
 18 19  1  0
 19 20  2  0
 20 21  1  0
 21 22  2  0
 22 23  1  0
 11  6  1  0
 23 15  1  0
 22 17  1  0
M  END
$$$$
