
     RDKit          3D

 32 35  0  0  0  0  0  0  0  0999 V2000
   23.7384    8.2150   -6.9029 N   0  0  0  0  0  0  0  0  0  0  0  0
   22.5586    8.6427   -7.5522 C   0  0  0  0  0  0  0  0  0  0  0  0
   22.3794    9.9979   -7.8288 C   0  0  0  0  0  0  0  0  0  0  0  0
   21.2954   10.3797   -8.6085 C   0  0  0  0  0  0  0  0  0  0  0  0
   20.4143    9.5127   -9.1496 N   0  0  0  0  0  0  0  0  0  0  0  0
   20.6390    8.1993   -8.9062 C   0  0  0  0  0  0  0  0  0  0  0  0
   21.6837    7.6940   -8.1256 C   0  0  0  0  0  0  0  0  0  0  0  0
   21.9040    6.3263   -7.9113 N   0  0  0  0  0  0  0  0  0  0  0  0
   21.9930    5.5242   -9.1300 C   0  0  0  0  0  0  0  0  0  0  0  0
   22.8793    4.3102   -8.8486 C   0  0  0  0  0  0  0  0  0  0  0  0
   22.5996    3.6748   -7.4864 C   0  0  0  0  0  0  0  0  0  0  0  0
   21.2786    4.1622   -6.8993 C   0  0  0  0  0  0  0  0  0  0  0  0
   21.2441    5.7078   -6.7471 C   0  0  0  0  0  0  0  0  0  0  0  0
   19.8579    6.0026   -6.3990 N   0  0  0  0  0  0  0  0  0  0  0  0
   19.7467    7.0195   -5.3661 C   0  0  0  0  0  0  0  0  0  0  0  0
   18.4044    7.4422   -4.9983 N   0  0  0  0  0  0  0  0  0  0  0  0
   17.7899    8.2656   -5.9827 C   0  0  0  0  0  0  0  0  0  0  0  0
   18.2722    9.5515   -6.2471 C   0  0  0  0  0  0  0  0  0  0  0  0
   17.6872   10.3263   -7.2466 C   0  0  0  0  0  0  0  0  0  0  0  0
   16.6061    9.8188   -7.9706 C   0  0  0  0  0  0  0  0  0  0  0  0
   15.9079   10.7585   -9.2904 S   0  0  0  0  0  0  0  0  0  0  0  0
   14.5391   11.4154   -8.5697 N   0  0  0  0  0  0  0  0  0  0  0  0
   16.7598   11.8867   -9.5967 O   0  0  0  0  0  0  0  0  0  0  0  0
   15.4191    9.8552  -10.3063 O   0  0  0  0  0  0  0  0  0  0  0  0
   16.1024    8.5405   -7.7095 C   0  0  0  0  0  0  0  0  0  0  0  0
   16.6842    7.7530   -6.7110 C   0  0  0  0  0  0  0  0  0  0  0  0
   16.2314    6.4475   -6.4098 N   0  0  0  0  0  0  0  0  0  0  0  0
   16.3653    5.4861   -7.5186 C   0  0  0  0  0  0  0  0  0  0  0  0
   15.0084    4.9833   -8.0020 C   0  0  0  0  0  0  0  0  0  0  0  0
   14.1928    4.3594   -6.8673 C   0  0  0  0  0  0  0  0  0  0  0  0
   14.4635    5.0148   -5.5112 C   0  0  0  0  0  0  0  0  0  0  0  0
   14.9535    6.4509   -5.6774 C   0  0  0  0  0  0  0  0  0  0  0  0
  1  2  1  0
  2  3  2  0
  3  4  1  0
  4  5  2  0
  5  6  1  0
  6  7  2  0
  7  8  1  0
  8  9  1  0
  9 10  1  0
 10 11  1  0
 11 12  1  0
 12 13  1  0
 13 14  1  0
 14 15  1  0
 15 16  1  0
 16 17  1  0
 17 18  2  0
 18 19  1  0
 19 20  2  0
 20 21  1  0
 21 22  1  0
 21 23  2  0
 21 24  2  0
 20 25  1  0
 25 26  2  0
 26 27  1  0
 27 28  1  0
 28 29  1  0
 29 30  1  0
 30 31  1  0
 31 32  1  0
  7  2  1  0
 13  8  1  0
 26 17  1  0
 32 27  1  0
M  END
$$$$
