
     RDKit          3D

 29 32  0  0  0  0  0  0  0  0999 V2000
  -47.6770  -35.2262  -13.2989 N   0  0  0  0  0  0  0  0  0  0  0  0
  -47.6824  -36.4065  -12.4337 C   0  0  0  0  0  0  0  0  0  0  0  0
  -46.2747  -36.9987  -12.2796 C   0  0  0  0  0  0  0  0  0  0  0  0
  -46.2644  -38.2488  -11.4179 C   0  0  0  0  0  0  0  0  0  0  0  0
  -46.5482  -38.1050  -10.0442 C   0  0  0  0  0  0  0  0  0  0  0  0
  -46.5458  -39.2050   -9.1914 C   0  0  0  0  0  0  0  0  0  0  0  0
  -46.2565  -40.4578   -9.7027 C   0  0  0  0  0  0  0  0  0  0  0  0
  -46.2744  -41.5146   -8.8397 O   0  0  0  0  0  0  0  0  0  0  0  0
  -45.9587  -40.6263  -11.0534 C   0  0  0  0  0  0  0  0  0  0  0  0
  -45.9443  -39.5276  -11.9349 C   0  0  0  0  0  0  0  0  0  0  0  0
  -45.6415  -39.6878  -13.3043 N   0  0  0  0  0  0  0  0  0  0  0  0
  -46.8684  -39.8689  -14.1045 C   0  0  0  0  0  0  0  0  0  0  0  0
  -46.5343  -40.2482  -15.5427 C   0  0  0  0  0  0  0  0  0  0  0  0
  -45.7621  -41.5647  -15.6068 C   0  0  0  0  0  0  0  0  0  0  0  0
  -44.9649  -41.8385  -14.3281 C   0  0  0  0  0  0  0  0  0  0  0  0
  -44.4962  -40.5464  -13.6448 C   0  0  0  0  0  0  0  0  0  0  0  0
  -43.6653  -39.8603  -14.5858 O   0  0  0  0  0  0  0  0  0  0  0  0
  -42.4996  -39.2717  -14.0097 C   0  0  0  0  0  0  0  0  0  0  0  0
  -42.7959  -38.0441  -13.1391 C   0  0  0  0  0  0  0  0  0  0  0  0
  -41.5928  -37.2791  -12.8315 N   0  0  0  0  0  0  0  0  0  0  0  0
  -40.6600  -37.8591  -11.9749 C   0  0  0  0  0  0  0  0  0  0  0  0
  -41.0342  -38.7929  -11.0592 N   0  0  0  0  0  0  0  0  0  0  0  0
  -40.0992  -39.3067  -10.2298 C   0  0  0  0  0  0  0  0  0  0  0  0
  -38.7787  -39.0375  -10.1867 N   0  0  0  0  0  0  0  0  0  0  0  0
  -38.4572  -38.1269  -11.1154 C   0  0  0  0  0  0  0  0  0  0  0  0
  -37.2187  -37.6131  -11.3670 N   0  0  0  0  0  0  0  0  0  0  0  0
  -37.3423  -36.7237  -12.4000 C   0  0  0  0  0  0  0  0  0  0  0  0
  -38.5846  -36.6350  -12.8268 N   0  0  0  0  0  0  0  0  0  0  0  0
  -39.2974  -37.5043  -12.0214 C   0  0  0  0  0  0  0  0  0  0  0  0
  1  2  1  0
  2  3  1  0
  3  4  1  0
  4  5  2  0
  5  6  1  0
  6  7  2  0
  7  8  1  0
  7  9  1  0
  9 10  2  0
 10 11  1  0
 11 12  1  0
 12 13  1  0
 13 14  1  0
 14 15  1  0
 15 16  1  0
 16 17  1  0
 17 18  1  0
 18 19  1  0
 19 20  1  0
 20 21  1  0
 21 22  2  0
 22 23  1  0
 23 24  2  0
 24 25  1  0
 25 26  1  0
 26 27  1  0
 27 28  2  0
 28 29  1  0
 10  4  1  0
 16 11  1  0
 29 21  1  0
 29 25  2  0
M  END
$$$$
