
     RDKit          3D

 19 20  0  0  0  0  0  0  0  0999 V2000
   -6.2271   11.6979   -6.0459 N   0  0  0  0  0  0  0  0  0  0  0  0
   -5.7201   11.1802   -7.3114 C   0  0  0  0  0  0  0  0  0  0  0  0
   -5.6901   12.2592   -8.3836 C   0  0  0  0  0  0  0  0  0  0  0  0
   -7.0821   12.6396   -8.8438 C   0  0  0  0  0  0  0  0  0  0  0  0
   -7.8389   11.8194   -9.3675 O   0  0  0  0  0  0  0  0  0  0  0  0
   -7.5108   14.0666   -8.6540 C   0  0  0  0  0  0  0  0  0  0  0  0
   -7.9465   14.3737   -7.2482 C   0  0  0  0  0  0  0  0  0  0  0  0
   -7.1530   14.8498   -6.4332 O   0  0  0  0  0  0  0  0  0  0  0  0
   -9.3767   14.0578   -6.8715 C   0  0  0  0  0  0  0  0  0  0  0  0
   -9.4687   12.7520   -6.0964 C   0  0  0  0  0  0  0  0  0  0  0  0
  -10.8890   12.3655   -5.8317 C   0  0  0  0  0  0  0  0  0  0  0  0
  -11.6357   12.6854   -4.7150 C   0  0  0  0  0  0  0  0  0  0  0  0
  -12.8859   12.1491   -4.8666 N   0  0  0  0  0  0  0  0  0  0  0  0
  -12.9777   11.4841   -6.0668 C   0  0  0  0  0  0  0  0  0  0  0  0
  -14.0546   10.7951   -6.6377 C   0  0  0  0  0  0  0  0  0  0  0  0
  -13.8554   10.2048   -7.8894 C   0  0  0  0  0  0  0  0  0  0  0  0
  -12.6282   10.3009   -8.5410 C   0  0  0  0  0  0  0  0  0  0  0  0
  -11.5620   10.9937   -7.9560 C   0  0  0  0  0  0  0  0  0  0  0  0
  -11.7372   11.5987   -6.6942 C   0  0  0  0  0  0  0  0  0  0  0  0
  1  2  1  0
  2  3  1  0
  3  4  1  0
  4  5  2  0
  4  6  1  0
  6  7  1  0
  7  8  2  0
  7  9  1  0
  9 10  1  0
 10 11  1  0
 11 12  2  0
 12 13  1  0
 13 14  1  0
 14 15  2  0
 15 16  1  0
 16 17  2  0
 17 18  1  0
 18 19  2  0
 19 11  1  0
 19 14  1  0
M  END
$$$$
