
     RDKit          3D

 15 16  0  0  0  0  0  0  0  0999 V2000
   -1.8243  -14.2034   11.8143 N   0  0  0  0  0  0  0  0  0  0  0  0
   -2.5110  -15.0170   12.6646 C   0  0  0  0  0  0  0  0  0  0  0  0
   -2.8535  -14.6088   13.7693 O   0  0  0  0  0  0  0  0  0  0  0  0
   -2.8248  -16.4058   12.1963 C   0  0  0  0  0  0  0  0  0  0  0  0
   -3.6995  -17.1432   13.0175 C   0  0  0  0  0  0  0  0  0  0  0  0
   -4.0714  -18.4451   12.6864 C   0  0  0  0  0  0  0  0  0  0  0  0
   -3.5706  -19.0307   11.5311 C   0  0  0  0  0  0  0  0  0  0  0  0
   -2.6979  -18.3155   10.7076 C   0  0  0  0  0  0  0  0  0  0  0  0
   -2.3074  -16.9944   11.0140 C   0  0  0  0  0  0  0  0  0  0  0  0
   -1.3949  -16.2970   10.1701 N   0  0  0  0  0  0  0  0  0  0  0  0
   -1.8764  -16.1827    8.7778 C   0  0  0  0  0  0  0  0  0  0  0  0
   -0.9409  -15.2502    8.0067 C   0  0  0  0  0  0  0  0  0  0  0  0
    0.5048  -15.7410    8.0756 C   0  0  0  0  0  0  0  0  0  0  0  0
    0.9420  -15.9572    9.5239 C   0  0  0  0  0  0  0  0  0  0  0  0
   -0.0348  -16.8682   10.2691 C   0  0  0  0  0  0  0  0  0  0  0  0
  1  2  1  0
  2  3  2  0
  2  4  1  0
  4  5  2  0
  5  6  1  0
  6  7  2  0
  7  8  1  0
  8  9  2  0
  9 10  1  0
 10 11  1  0
 11 12  1  0
 12 13  1  0
 13 14  1  0
 14 15  1  0
  9  4  1  0
 15 10  1  0
M  END
$$$$
