
     RDKit          3D

 30 32  0  0  0  0  0  0  0  0999 V2000
   18.6740    4.9379    9.5844 N   0  0  0  0  0  0  0  0  0  0  0  0
   19.7066    4.9289   10.6199 C   0  0  0  0  0  0  0  0  0  0  0  0
   19.8602    3.5435   11.2311 C   0  0  0  0  0  0  0  0  0  0  0  0
   18.8232    3.2882   12.3080 C   0  0  0  0  0  0  0  0  0  0  0  0
   18.8063    3.9425   13.3485 O   0  0  0  0  0  0  0  0  0  0  0  0
   17.8142    2.2044   12.1068 C   0  0  0  0  0  0  0  0  0  0  0  0
   18.2555    0.9851   11.5617 C   0  0  0  0  0  0  0  0  0  0  0  0
   17.3607   -0.0630   11.3366 C   0  0  0  0  0  0  0  0  0  0  0  0
   16.0192    0.0979   11.6601 C   0  0  0  0  0  0  0  0  0  0  0  0
   14.9086   -1.1825   11.3709 Cl  0  0  0  0  0  0  0  0  0  0  0  0
   15.5696    1.2921   12.2217 C   0  0  0  0  0  0  0  0  0  0  0  0
   16.4571    2.3612   12.4781 C   0  0  0  0  0  0  0  0  0  0  0  0
   15.9028    3.6442   13.0763 C   0  0  0  0  0  0  0  0  0  0  0  0
   14.7817    3.3257   13.9241 O   0  0  0  0  0  0  0  0  0  0  0  0
   15.4975    4.6512   11.9668 C   0  0  0  0  0  0  0  0  0  0  0  0
   16.2986    5.0590   11.1285 O   0  0  0  0  0  0  0  0  0  0  0  0
   14.1603    4.9859   12.0402 N   0  0  0  0  0  0  0  0  0  0  0  0
   13.4076    5.8505   11.2186 C   0  0  0  0  0  0  0  0  0  0  0  0
   13.9682    6.5891   10.1805 C   0  0  0  0  0  0  0  0  0  0  0  0
   13.1501    7.4525    9.4743 C   0  0  0  0  0  0  0  0  0  0  0  0
   11.8397    7.6262    9.7333 N   0  0  0  0  0  0  0  0  0  0  0  0
   11.3176    6.8938   10.7452 C   0  0  0  0  0  0  0  0  0  0  0  0
   12.0298    5.9737   11.5205 C   0  0  0  0  0  0  0  0  0  0  0  0
   11.4615    5.1821   12.5469 N   0  0  0  0  0  0  0  0  0  0  0  0
   11.1714    3.7934   12.1337 C   0  0  0  0  0  0  0  0  0  0  0  0
    9.8256    3.6980   11.4177 C   0  0  0  0  0  0  0  0  0  0  0  0
    8.6958    4.2173   12.2957 C   0  0  0  0  0  0  0  0  0  0  0  0
    9.0153    5.6049   12.7976 C   0  0  0  0  0  0  0  0  0  0  0  0
    8.1605    6.4899   12.8253 O   0  0  0  0  0  0  0  0  0  0  0  0
   10.4090    5.8139   13.3715 C   0  0  0  0  0  0  0  0  0  0  0  0
  1  2  1  0
  2  3  1  0
  3  4  1  0
  4  5  2  0
  4  6  1  0
  6  7  2  0
  7  8  1  0
  8  9  2  0
  9 10  1  0
  9 11  1  0
 11 12  2  0
 12 13  1  0
 13 14  1  0
 13 15  1  0
 15 16  2  0
 15 17  1  0
 17 18  1  0
 18 19  2  0
 19 20  1  0
 20 21  2  0
 21 22  1  0
 22 23  2  0
 23 24  1  0
 24 25  1  0
 25 26  1  0
 26 27  1  0
 27 28  1  0
 28 29  2  0
 28 30  1  0
 12  6  1  0
 23 18  1  0
 30 24  1  0
M  END
$$$$
