
     RDKit          3D

 26 28  0  0  0  0  0  0  0  0999 V2000
   28.8127  -31.5393  -34.7677 N   0  0  0  0  0  0  0  0  0  0  0  0
   28.3978  -30.3199  -35.2308 C   0  0  0  0  0  0  0  0  0  0  0  0
   28.6359  -29.2927  -34.6103 O   0  0  0  0  0  0  0  0  0  0  0  0
   27.6564  -30.3245  -36.5243 C   0  0  0  0  0  0  0  0  0  0  0  0
   26.6964  -31.3293  -36.7393 C   0  0  0  0  0  0  0  0  0  0  0  0
   25.9629  -31.3647  -37.9263 C   0  0  0  0  0  0  0  0  0  0  0  0
   26.1797  -30.3932  -38.8979 C   0  0  0  0  0  0  0  0  0  0  0  0
   25.2757  -30.4313  -40.3608 Cl  0  0  0  0  0  0  0  0  0  0  0  0
   27.1222  -29.3850  -38.6938 C   0  0  0  0  0  0  0  0  0  0  0  0
   27.8790  -29.3354  -37.5068 C   0  0  0  0  0  0  0  0  0  0  0  0
   28.8987  -28.2334  -37.3362 C   0  0  0  0  0  0  0  0  0  0  0  0
   30.2215  -28.7978  -37.1326 N   0  0  0  0  0  0  0  0  0  0  0  0
   31.2002  -28.9041  -38.1285 C   0  0  0  0  0  0  0  0  0  0  0  0
   30.8941  -28.8646  -39.4907 C   0  0  0  0  0  0  0  0  0  0  0  0
   31.9173  -28.9677  -40.4176 C   0  0  0  0  0  0  0  0  0  0  0  0
   33.2116  -29.1222  -40.0895 N   0  0  0  0  0  0  0  0  0  0  0  0
   33.4903  -29.2117  -38.7680 C   0  0  0  0  0  0  0  0  0  0  0  0
   32.5464  -29.1598  -37.7338 C   0  0  0  0  0  0  0  0  0  0  0  0
   32.8716  -29.3323  -36.3735 N   0  0  0  0  0  0  0  0  0  0  0  0
   32.1542  -30.4317  -35.6847 C   0  0  0  0  0  0  0  0  0  0  0  0
   33.0938  -31.5149  -35.1821 C   0  0  0  0  0  0  0  0  0  0  0  0
   32.7263  -32.3375  -34.3398 O   0  0  0  0  0  0  0  0  0  0  0  0
   34.4449  -31.6176  -35.8322 C   0  0  0  0  0  0  0  0  0  0  0  0
   35.1131  -30.2826  -36.0057 C   0  0  0  0  0  0  0  0  0  0  0  0
   36.3228  -30.1979  -36.2220 O   0  0  0  0  0  0  0  0  0  0  0  0
   34.2332  -29.0497  -35.8993 C   0  0  0  0  0  0  0  0  0  0  0  0
  1  2  1  0
  2  3  2  0
  2  4  1  0
  4  5  2  0
  5  6  1  0
  6  7  2  0
  7  8  1  0
  7  9  1  0
  9 10  2  0
 10 11  1  0
 11 12  1  0
 12 13  1  0
 13 14  2  0
 14 15  1  0
 15 16  2  0
 16 17  1  0
 17 18  2  0
 18 19  1  0
 19 20  1  0
 20 21  1  0
 21 22  2  0
 21 23  1  0
 23 24  1  0
 24 25  2  0
 24 26  1  0
 10  4  1  0
 18 13  1  0
 26 19  1  0
M  END
$$$$
