
     RDKit          3D

 15 16  0  0  0  0  0  0  0  0999 V2000
   17.6465   18.6303    8.9628 N   0  0  0  0  0  0  0  0  0  0  0  0
   16.5117   18.2727    8.1201 C   0  0  0  0  0  0  0  0  0  0  0  0
   16.5834   16.8053    7.6975 C   0  0  0  0  0  0  0  0  0  0  0  0
   15.4459   16.4118    6.7572 C   0  0  0  0  0  0  0  0  0  0  0  0
   14.1120   16.3476    7.4826 C   0  0  0  0  0  0  0  0  0  0  0  0
   13.9132   15.4281    8.2795 O   0  0  0  0  0  0  0  0  0  0  0  0
   13.0988   17.3819    7.2429 C   0  0  0  0  0  0  0  0  0  0  0  0
   13.2272   18.4999    6.4351 C   0  0  0  0  0  0  0  0  0  0  0  0
   12.0603   19.2164    6.4893 N   0  0  0  0  0  0  0  0  0  0  0  0
   11.1583   18.5946    7.3168 C   0  0  0  0  0  0  0  0  0  0  0  0
    9.8535   18.9656    7.6649 C   0  0  0  0  0  0  0  0  0  0  0  0
    9.1545   18.1339    8.5435 C   0  0  0  0  0  0  0  0  0  0  0  0
    9.7396   16.9783    9.0525 C   0  0  0  0  0  0  0  0  0  0  0  0
   11.0451   16.6236    8.6935 C   0  0  0  0  0  0  0  0  0  0  0  0
   11.7771   17.4435    7.8070 C   0  0  0  0  0  0  0  0  0  0  0  0
  1  2  1  0
  2  3  1  0
  3  4  1  0
  4  5  1  0
  5  6  2  0
  5  7  1  0
  7  8  2  0
  8  9  1  0
  9 10  1  0
 10 11  2  0
 11 12  1  0
 12 13  2  0
 13 14  1  0
 14 15  2  0
 15  7  1  0
 15 10  1  0
M  END
$$$$
