
     RDKit          3D

 19 20  0  0  0  0  0  0  0  0999 V2000
   25.0329   18.9061   -5.9959 N   0  0  0  0  0  0  0  0  0  0  0  0
   25.5399   18.3885   -7.2613 C   0  0  0  0  0  0  0  0  0  0  0  0
   25.5700   19.4674   -8.3335 C   0  0  0  0  0  0  0  0  0  0  0  0
   24.1779   19.8479   -8.7937 C   0  0  0  0  0  0  0  0  0  0  0  0
   23.4211   19.0276   -9.3174 O   0  0  0  0  0  0  0  0  0  0  0  0
   23.7492   21.2749   -8.6039 C   0  0  0  0  0  0  0  0  0  0  0  0
   23.3135   21.5820   -7.1982 C   0  0  0  0  0  0  0  0  0  0  0  0
   24.1070   22.0580   -6.3832 O   0  0  0  0  0  0  0  0  0  0  0  0
   21.8833   21.2661   -6.8215 C   0  0  0  0  0  0  0  0  0  0  0  0
   21.7913   19.9602   -6.0464 C   0  0  0  0  0  0  0  0  0  0  0  0
   20.3710   19.5738   -5.7817 C   0  0  0  0  0  0  0  0  0  0  0  0
   19.6244   19.8937   -4.6649 C   0  0  0  0  0  0  0  0  0  0  0  0
   18.3741   19.3574   -4.8166 N   0  0  0  0  0  0  0  0  0  0  0  0
   18.2824   18.6923   -6.0168 C   0  0  0  0  0  0  0  0  0  0  0  0
   17.2054   18.0034   -6.5877 C   0  0  0  0  0  0  0  0  0  0  0  0
   17.4046   17.4131   -7.8393 C   0  0  0  0  0  0  0  0  0  0  0  0
   18.6318   17.5091   -8.4909 C   0  0  0  0  0  0  0  0  0  0  0  0
   19.6980   18.2019   -7.9060 C   0  0  0  0  0  0  0  0  0  0  0  0
   19.5229   18.8069   -6.6442 C   0  0  0  0  0  0  0  0  0  0  0  0
  1  2  1  0
  2  3  1  0
  3  4  1  0
  4  5  2  0
  4  6  1  0
  6  7  1  0
  7  8  2  0
  7  9  1  0
  9 10  1  0
 10 11  1  0
 11 12  2  0
 12 13  1  0
 13 14  1  0
 14 15  2  0
 15 16  1  0
 16 17  2  0
 17 18  1  0
 18 19  2  0
 19 11  1  0
 19 14  1  0
M  END
$$$$
