
     RDKit          3D

 28 31  0  0  0  0  0  0  0  0999 V2000
   18.2522    7.3902    4.7420 N   0  0  0  0  0  0  0  0  0  0  0  0
   18.0823    7.4402    6.1995 C   0  0  0  0  0  0  0  0  0  0  0  0
   18.1771    8.8504    6.7300 C   0  0  0  0  0  0  0  0  0  0  0  0
   17.3307    9.8374    6.1974 C   0  0  0  0  0  0  0  0  0  0  0  0
   17.3913   11.1268    6.6980 C   0  0  0  0  0  0  0  0  0  0  0  0
   18.2212   11.5061    7.6882 N   0  0  0  0  0  0  0  0  0  0  0  0
   19.0254   10.5406    8.1933 C   0  0  0  0  0  0  0  0  0  0  0  0
   19.0584    9.2049    7.7667 C   0  0  0  0  0  0  0  0  0  0  0  0
   19.9226    8.2453    8.3252 N   0  0  0  0  0  0  0  0  0  0  0  0
   19.5272    7.8969    9.7072 C   0  0  0  0  0  0  0  0  0  0  0  0
   20.6881    7.3130   10.5138 C   0  0  0  0  0  0  0  0  0  0  0  0
   21.5534    6.4032    9.6562 C   0  0  0  0  0  0  0  0  0  0  0  0
   22.0669    7.1169    8.4015 C   0  0  0  0  0  0  0  0  0  0  0  0
   21.3649    8.4722    8.1166 C   0  0  0  0  0  0  0  0  0  0  0  0
   21.8428    8.8483    6.7810 N   0  0  0  0  0  0  0  0  0  0  0  0
   22.2379   10.2577    6.6680 C   0  0  0  0  0  0  0  0  0  0  0  0
   23.7337   10.5146    6.9609 C   0  0  0  0  0  0  0  0  0  0  0  0
   24.0699   10.3524    8.3810 N   0  0  0  0  0  0  0  0  0  0  0  0
   25.4843   10.6327    8.6513 C   0  0  0  0  0  0  0  0  0  0  0  0
   26.3628    9.4965    8.2333 C   0  0  0  0  0  0  0  0  0  0  0  0
   26.1937    8.2224    8.5323 N   0  0  0  0  0  0  0  0  0  0  0  0
   27.2265    7.5589    7.9167 C   0  0  0  0  0  0  0  0  0  0  0  0
   27.5352    6.1906    7.9045 C   0  0  0  0  0  0  0  0  0  0  0  0
   28.6609    5.7623    7.1886 C   0  0  0  0  0  0  0  0  0  0  0  0
   29.4615    6.6773    6.4993 C   0  0  0  0  0  0  0  0  0  0  0  0
   29.1682    8.0466    6.4996 C   0  0  0  0  0  0  0  0  0  0  0  0
   28.0426    8.4456    7.2233 C   0  0  0  0  0  0  0  0  0  0  0  0
   27.4702    9.6720    7.4407 N   0  0  0  0  0  0  0  0  0  0  0  0
  1  2  1  0
  2  3  1  0
  3  4  2  0
  4  5  1  0
  5  6  2  0
  6  7  1  0
  7  8  2  0
  8  9  1  0
  9 10  1  0
 10 11  1  0
 11 12  1  0
 12 13  1  0
 13 14  1  0
 14 15  1  0
 15 16  1  0
 16 17  1  0
 17 18  1  0
 18 19  1  0
 19 20  1  0
 20 21  2  0
 21 22  1  0
 22 23  2  0
 23 24  1  0
 24 25  2  0
 25 26  1  0
 26 27  2  0
 27 28  1  0
  8  3  1  0
 14  9  1  0
 28 20  1  0
 27 22  1  0
M  END
$$$$
