
     RDKit          3D

 21 22  0  0  0  0  0  0  0  0999 V2000
    0.1808    2.9511   25.9601 N   0  0  0  0  0  0  0  0  0  0  0  0
   -1.0747    2.7116   25.2604 C   0  0  0  0  0  0  0  0  0  0  0  0
   -1.7807    1.4873   25.8412 C   0  0  0  0  0  0  0  0  0  0  0  0
   -3.0925    1.2040   25.1062 C   0  0  0  0  0  0  0  0  0  0  0  0
   -3.8093   -0.0119   25.6948 C   0  0  0  0  0  0  0  0  0  0  0  0
   -5.1112   -0.2982   24.9502 C   0  0  0  0  0  0  0  0  0  0  0  0
   -5.9920   -1.6677   25.6789 S   0  0  0  0  0  0  0  0  0  0  0  0
   -6.6336   -1.2342   26.9065 O   0  0  0  0  0  0  0  0  0  0  0  0
   -5.0645   -2.7884   25.7071 O   0  0  0  0  0  0  0  0  0  0  0  0
   -7.2799   -2.1143   24.5339 C   0  0  0  0  0  0  0  0  0  0  0  0
   -7.3865   -3.4768   24.2157 C   0  0  0  0  0  0  0  0  0  0  0  0
   -8.3222   -3.8633   23.2798 C   0  0  0  0  0  0  0  0  0  0  0  0
   -9.1393   -2.9975   22.6574 N   0  0  0  0  0  0  0  0  0  0  0  0
   -9.0187   -1.6902   22.9996 C   0  0  0  0  0  0  0  0  0  0  0  0
   -8.1117   -1.1615   23.9276 C   0  0  0  0  0  0  0  0  0  0  0  0
   -8.0801    0.2009   24.2503 N   0  0  0  0  0  0  0  0  0  0  0  0
   -8.7760    0.5251   25.5207 C   0  0  0  0  0  0  0  0  0  0  0  0
   -9.8479    1.5931   25.3171 C   0  0  0  0  0  0  0  0  0  0  0  0
   -9.2682    2.8682   24.7035 C   0  0  0  0  0  0  0  0  0  0  0  0
   -8.1501    2.5833   23.6985 C   0  0  0  0  0  0  0  0  0  0  0  0
   -8.2485    1.1638   23.1473 C   0  0  0  0  0  0  0  0  0  0  0  0
  1  2  1  0
  2  3  1  0
  3  4  1  0
  4  5  1  0
  5  6  1  0
  6  7  1  0
  7  8  2  0
  7  9  2  0
  7 10  1  0
 10 11  2  0
 11 12  1  0
 12 13  2  0
 13 14  1  0
 14 15  2  0
 15 16  1  0
 16 17  1  0
 17 18  1  0
 18 19  1  0
 19 20  1  0
 20 21  1  0
 15 10  1  0
 21 16  1  0
M  END
$$$$
