
     RDKit          3D

 18 19  0  0  0  0  0  0  0  0999 V2000
   22.8465    2.9228  -11.6102 N   0  0  0  0  0  0  0  0  0  0  0  0
   22.0258    1.8806  -12.2164 C   0  0  0  0  0  0  0  0  0  0  0  0
   22.1285    0.5890  -11.4035 C   0  0  0  0  0  0  0  0  0  0  0  0
   21.3817   -0.5742  -12.0552 C   0  0  0  0  0  0  0  0  0  0  0  0
   19.8668   -0.4617  -11.9834 C   0  0  0  0  0  0  0  0  0  0  0  0
   19.2981    0.4475  -11.3805 O   0  0  0  0  0  0  0  0  0  0  0  0
   19.0917   -1.5599  -12.6988 C   0  0  0  0  0  0  0  0  0  0  0  0
   17.5782   -1.3930  -12.5807 C   0  0  0  0  0  0  0  0  0  0  0  0
   17.0497   -0.2526  -13.4557 C   0  0  0  0  0  0  0  0  0  0  0  0
   15.6213    0.0360  -13.1525 C   0  0  0  0  0  0  0  0  0  0  0  0
   14.5665   -0.4411  -13.7796 N   0  0  0  0  0  0  0  0  0  0  0  0
   13.4807    0.1047  -13.1381 C   0  0  0  0  0  0  0  0  0  0  0  0
   12.1115   -0.0624  -13.3906 C   0  0  0  0  0  0  0  0  0  0  0  0
   11.1909    0.6137  -12.5794 C   0  0  0  0  0  0  0  0  0  0  0  0
   11.6252    1.4386  -11.5384 C   0  0  0  0  0  0  0  0  0  0  0  0
   12.9878    1.6177  -11.2712 C   0  0  0  0  0  0  0  0  0  0  0  0
   13.8825    0.9325  -12.0957 C   0  0  0  0  0  0  0  0  0  0  0  0
   15.2513    0.8719  -12.1265 N   0  0  0  0  0  0  0  0  0  0  0  0
  1  2  1  0
  2  3  1  0
  3  4  1  0
  4  5  1  0
  5  6  2  0
  5  7  1  0
  7  8  1  0
  8  9  1  0
  9 10  1  0
 10 11  2  0
 11 12  1  0
 12 13  2  0
 13 14  1  0
 14 15  2  0
 15 16  1  0
 16 17  2  0
 17 18  1  0
 18 10  1  0
 17 12  1  0
M  END
$$$$
