
     RDKit          3D

 19 20  0  0  0  0  0  0  0  0999 V2000
   42.4495  -39.9377   -2.0520 N   0  0  0  0  0  0  0  0  0  0  0  0
   42.9566  -40.4554   -3.3175 C   0  0  0  0  0  0  0  0  0  0  0  0
   42.9866  -39.3764   -4.3897 C   0  0  0  0  0  0  0  0  0  0  0  0
   41.5945  -38.9960   -4.8499 C   0  0  0  0  0  0  0  0  0  0  0  0
   40.8377  -39.8162   -5.3736 O   0  0  0  0  0  0  0  0  0  0  0  0
   41.1659  -37.5690   -4.6601 C   0  0  0  0  0  0  0  0  0  0  0  0
   40.7302  -37.2619   -3.2543 C   0  0  0  0  0  0  0  0  0  0  0  0
   41.5236  -36.7858   -2.4393 O   0  0  0  0  0  0  0  0  0  0  0  0
   39.2999  -37.5778   -2.8776 C   0  0  0  0  0  0  0  0  0  0  0  0
   39.2079  -38.8836   -2.1025 C   0  0  0  0  0  0  0  0  0  0  0  0
   37.7876  -39.2701   -1.8378 C   0  0  0  0  0  0  0  0  0  0  0  0
   37.0410  -38.9502   -0.7211 C   0  0  0  0  0  0  0  0  0  0  0  0
   35.7907  -39.4864   -0.8727 N   0  0  0  0  0  0  0  0  0  0  0  0
   35.6990  -40.1515   -2.0730 C   0  0  0  0  0  0  0  0  0  0  0  0
   34.6221  -40.8405   -2.6439 C   0  0  0  0  0  0  0  0  0  0  0  0
   34.8212  -41.4308   -3.8955 C   0  0  0  0  0  0  0  0  0  0  0  0
   36.0484  -41.3347   -4.5471 C   0  0  0  0  0  0  0  0  0  0  0  0
   37.1146  -40.6419   -3.9622 C   0  0  0  0  0  0  0  0  0  0  0  0
   36.9395  -40.0369   -2.7003 C   0  0  0  0  0  0  0  0  0  0  0  0
  1  2  1  0
  2  3  1  0
  3  4  1  0
  4  5  2  0
  4  6  1  0
  6  7  1  0
  7  8  2  0
  7  9  1  0
  9 10  1  0
 10 11  1  0
 11 12  2  0
 12 13  1  0
 13 14  1  0
 14 15  2  0
 15 16  1  0
 16 17  2  0
 17 18  1  0
 18 19  2  0
 19 11  1  0
 19 14  1  0
M  END
$$$$
