
     RDKit          3D

 28 30  0  0  0  0  0  0  0  0999 V2000
   -4.5320    7.2580   -2.2715 N   0  0  0  0  0  0  0  0  0  0  0  0
   -5.7872    6.8103   -2.5791 C   0  0  0  0  0  0  0  0  0  0  0  0
   -6.6555    6.7008   -1.7271 O   0  0  0  0  0  0  0  0  0  0  0  0
   -6.0188    6.4838   -4.0023 C   0  0  0  0  0  0  0  0  0  0  0  0
   -5.7817    7.5216   -4.9167 C   0  0  0  0  0  0  0  0  0  0  0  0
   -5.9974    7.2806   -6.2585 C   0  0  0  0  0  0  0  0  0  0  0  0
   -6.4207    6.0981   -6.7362 N   0  0  0  0  0  0  0  0  0  0  0  0
   -6.6428    5.1169   -5.8267 C   0  0  0  0  0  0  0  0  0  0  0  0
   -6.4730    5.2288   -4.4404 C   0  0  0  0  0  0  0  0  0  0  0  0
   -6.7452    4.0885   -3.6631 N   0  0  0  0  0  0  0  0  0  0  0  0
   -5.5412    3.5909   -2.9587 C   0  0  0  0  0  0  0  0  0  0  0  0
   -5.7990    2.2161   -2.3665 C   0  0  0  0  0  0  0  0  0  0  0  0
   -4.9407    1.3324   -2.3650 O   0  0  0  0  0  0  0  0  0  0  0  0
   -7.1041    2.0436   -1.6295 C   0  0  0  0  0  0  0  0  0  0  0  0
   -8.2585    2.6324   -2.4300 C   0  0  0  0  0  0  0  0  0  0  0  0
   -7.9868    4.0983   -2.8355 C   0  0  0  0  0  0  0  0  0  0  0  0
   -9.1960    4.6873   -3.5963 C   0  0  0  0  0  0  0  0  0  0  0  0
  -10.4604    4.7789   -2.7459 C   0  0  0  0  0  0  0  0  0  0  0  0
  -11.5202    5.4724   -3.4554 N   0  0  0  0  0  0  0  0  0  0  0  0
  -12.8270    5.3774   -3.0175 C   0  0  0  0  0  0  0  0  0  0  0  0
  -13.1822    4.6491   -2.0982 O   0  0  0  0  0  0  0  0  0  0  0  0
  -13.8174    6.2539   -3.7032 C   0  0  0  0  0  0  0  0  0  0  0  0
  -13.6433    6.6744   -5.0291 C   0  0  0  0  0  0  0  0  0  0  0  0
  -14.6020    7.4933   -5.6343 C   0  0  0  0  0  0  0  0  0  0  0  0
  -15.7341    7.8844   -4.9196 C   0  0  0  0  0  0  0  0  0  0  0  0
  -16.9099    8.8921   -5.6684 Cl  0  0  0  0  0  0  0  0  0  0  0  0
  -15.9223    7.4587   -3.6060 C   0  0  0  0  0  0  0  0  0  0  0  0
  -14.9665    6.6394   -2.9994 C   0  0  0  0  0  0  0  0  0  0  0  0
  1  2  1  0
  2  3  2  0
  2  4  1  0
  4  5  2  0
  5  6  1  0
  6  7  2  0
  7  8  1  0
  8  9  2  0
  9 10  1  0
 10 11  1  0
 11 12  1  0
 12 13  2  0
 12 14  1  0
 14 15  1  0
 15 16  1  0
 16 17  1  0
 17 18  1  0
 18 19  1  0
 19 20  1  0
 20 21  2  0
 20 22  1  0
 22 23  2  0
 23 24  1  0
 24 25  2  0
 25 26  1  0
 25 27  1  0
 27 28  2  0
  9  4  1  0
 16 10  1  0
 28 22  1  0
M  END
$$$$
