
     RDKit          3D

 19 20  0  0  0  0  0  0  0  0999 V2000
   37.6713   -6.5992  -15.8775 N   0  0  0  0  0  0  0  0  0  0  0  0
   36.6009   -5.8159  -16.4949 C   0  0  0  0  0  0  0  0  0  0  0  0
   37.0315   -4.3979  -16.8608 C   0  0  0  0  0  0  0  0  0  0  0  0
   37.9781   -4.3451  -18.0451 C   0  0  0  0  0  0  0  0  0  0  0  0
   38.1203   -5.2511  -18.8598 O   0  0  0  0  0  0  0  0  0  0  0  0
   38.6859   -3.0653  -18.2726 C   0  0  0  0  0  0  0  0  0  0  0  0
   38.2805   -2.3307  -19.3979 C   0  0  0  0  0  0  0  0  0  0  0  0
   38.8067   -1.0634  -19.6218 C   0  0  0  0  0  0  0  0  0  0  0  0
   39.7235   -0.5409  -18.7168 C   0  0  0  0  0  0  0  0  0  0  0  0
   40.3612    1.0380  -18.9707 Cl  0  0  0  0  0  0  0  0  0  0  0  0
   40.1428   -1.2850  -17.6060 C   0  0  0  0  0  0  0  0  0  0  0  0
   39.6593   -2.5822  -17.3661 C   0  0  0  0  0  0  0  0  0  0  0  0
   40.1238   -3.3635  -16.3006 N   0  0  0  0  0  0  0  0  0  0  0  0
   40.5357   -2.7407  -15.0356 C   0  0  0  0  0  0  0  0  0  0  0  0
   42.0485   -2.5442  -14.9588 C   0  0  0  0  0  0  0  0  0  0  0  0
   42.7896   -3.8513  -15.1829 C   0  0  0  0  0  0  0  0  0  0  0  0
   42.3503   -4.4636  -16.4900 C   0  0  0  0  0  0  0  0  0  0  0  0
   43.1703   -4.9232  -17.2851 O   0  0  0  0  0  0  0  0  0  0  0  0
   40.8479   -4.6007  -16.6917 C   0  0  0  0  0  0  0  0  0  0  0  0
  1  2  1  0
  2  3  1  0
  3  4  1  0
  4  5  2  0
  4  6  1  0
  6  7  2  0
  7  8  1  0
  8  9  2  0
  9 10  1  0
  9 11  1  0
 11 12  2  0
 12 13  1  0
 13 14  1  0
 14 15  1  0
 15 16  1  0
 16 17  1  0
 17 18  2  0
 17 19  1  0
 12  6  1  0
 19 13  1  0
M  END
$$$$
