
     RDKit          3D

 19 20  0  0  0  0  0  0  0  0999 V2000
   17.4548    9.8129   -7.8585 C   0  0  0  0  0  0  0  0  0  0  0  0
   17.1980    8.9003   -8.9391 N   0  0  0  0  0  0  0  0  0  0  0  0
   18.2401    8.3103   -9.6227 C   0  0  0  0  0  0  0  0  0  0  0  0
   19.4186    8.6223   -9.4759 O   0  0  0  0  0  0  0  0  0  0  0  0
   17.7889    7.2396  -10.5953 C   0  0  0  0  0  0  0  0  0  0  0  0
   17.6319    5.8827   -9.9452 C   0  0  0  0  0  0  0  0  0  0  0  0
   18.6775    4.9531  -10.0917 C   0  0  0  0  0  0  0  0  0  0  0  0
   18.5926    3.6768   -9.5337 C   0  0  0  0  0  0  0  0  0  0  0  0
   17.4558    3.3073   -8.8251 C   0  0  0  0  0  0  0  0  0  0  0  0
   17.2286    2.0876   -8.2471 O   0  0  0  0  0  0  0  0  0  0  0  0
   18.2661    1.1213   -8.3594 C   0  0  0  0  0  0  0  0  0  0  0  0
   16.4183    4.2328   -8.6634 C   0  0  0  0  0  0  0  0  0  0  0  0
   16.4911    5.5366   -9.1870 C   0  0  0  0  0  0  0  0  0  0  0  0
   15.4441    6.4773   -9.0176 N   0  0  0  0  0  0  0  0  0  0  0  0
   14.4049    6.2944  -10.0453 C   0  0  0  0  0  0  0  0  0  0  0  0
   13.5712    7.5760  -10.1307 C   0  0  0  0  0  0  0  0  0  0  0  0
   13.3559    8.2472   -8.7710 C   0  0  0  0  0  0  0  0  0  0  0  0
   13.5287    7.2618   -7.6229 C   0  0  0  0  0  0  0  0  0  0  0  0
   14.9033    6.5784   -7.6394 C   0  0  0  0  0  0  0  0  0  0  0  0
  1  2  1  0
  2  3  1  0
  3  4  2  0
  3  5  1  0
  5  6  1  0
  6  7  2  0
  7  8  1  0
  8  9  2  0
  9 10  1  0
 10 11  1  0
  9 12  1  0
 12 13  2  0
 13 14  1  0
 14 15  1  0
 15 16  1  0
 16 17  1  0
 17 18  1  0
 18 19  1  0
 13  6  1  0
 19 14  1  0
M  END
$$$$
