
     RDKit          3D

 18 19  0  0  0  0  0  0  0  0999 V2000
   -1.1961   -7.5359   11.3491 N   0  0  0  0  0  0  0  0  0  0  0  0
   -2.0167   -8.5781   10.7429 C   0  0  0  0  0  0  0  0  0  0  0  0
   -1.9140   -9.8696   11.5558 C   0  0  0  0  0  0  0  0  0  0  0  0
   -2.6609  -11.0328   10.9042 C   0  0  0  0  0  0  0  0  0  0  0  0
   -4.1758  -10.9203   10.9759 C   0  0  0  0  0  0  0  0  0  0  0  0
   -4.7445  -10.0111   11.5788 O   0  0  0  0  0  0  0  0  0  0  0  0
   -4.9509  -12.0186   10.2605 C   0  0  0  0  0  0  0  0  0  0  0  0
   -6.4644  -11.8517   10.3786 C   0  0  0  0  0  0  0  0  0  0  0  0
   -6.9929  -10.7112    9.5036 C   0  0  0  0  0  0  0  0  0  0  0  0
   -8.4213  -10.4227    9.8068 C   0  0  0  0  0  0  0  0  0  0  0  0
   -9.4760  -10.8998    9.1798 N   0  0  0  0  0  0  0  0  0  0  0  0
  -10.5619  -10.3540    9.8212 C   0  0  0  0  0  0  0  0  0  0  0  0
  -11.9311  -10.5210    9.5687 C   0  0  0  0  0  0  0  0  0  0  0  0
  -12.8516   -9.8450   10.3799 C   0  0  0  0  0  0  0  0  0  0  0  0
  -12.4174   -9.0200   11.4209 C   0  0  0  0  0  0  0  0  0  0  0  0
  -11.0548   -8.8409   11.6881 C   0  0  0  0  0  0  0  0  0  0  0  0
  -10.1601   -9.5262   10.8636 C   0  0  0  0  0  0  0  0  0  0  0  0
   -8.7913   -9.5867   10.8329 N   0  0  0  0  0  0  0  0  0  0  0  0
  1  2  1  0
  2  3  1  0
  3  4  1  0
  4  5  1  0
  5  6  2  0
  5  7  1  0
  7  8  1  0
  8  9  1  0
  9 10  1  0
 10 11  2  0
 11 12  1  0
 12 13  2  0
 13 14  1  0
 14 15  2  0
 15 16  1  0
 16 17  2  0
 17 18  1  0
 18 10  1  0
 17 12  1  0
M  END
$$$$
