
     RDKit          3D

 30 33  0  0  0  0  0  0  0  0999 V2000
   21.0215    3.1961   -1.7102 N   0  0  0  0  0  0  0  0  0  0  0  0
   21.2121    4.4089   -2.3982 C   0  0  0  0  0  0  0  0  0  0  0  0
   20.4360    5.5191   -2.0403 C   0  0  0  0  0  0  0  0  0  0  0  0
   20.4636    6.6824   -2.8077 C   0  0  0  0  0  0  0  0  0  0  0  0
   21.2400    6.7140   -3.9645 C   0  0  0  0  0  0  0  0  0  0  0  0
   21.3093    8.1824   -4.9513 S   0  0  0  0  0  0  0  0  0  0  0  0
   20.2824    7.7878   -6.2248 N   0  0  0  0  0  0  0  0  0  0  0  0
   22.6501    8.3091   -5.4709 O   0  0  0  0  0  0  0  0  0  0  0  0
   20.6499    9.2499   -4.2355 O   0  0  0  0  0  0  0  0  0  0  0  0
   22.0015    5.6068   -4.3531 C   0  0  0  0  0  0  0  0  0  0  0  0
   22.0017    4.4396   -3.5767 C   0  0  0  0  0  0  0  0  0  0  0  0
   22.7942    3.3306   -3.9172 N   0  0  0  0  0  0  0  0  0  0  0  0
   22.7660    2.9153   -5.3314 C   0  0  0  0  0  0  0  0  0  0  0  0
   23.0884    1.4292   -5.4124 C   0  0  0  0  0  0  0  0  0  0  0  0
   22.7493    0.7335   -6.3701 O   0  0  0  0  0  0  0  0  0  0  0  0
   23.8568    0.8511   -4.2439 C   0  0  0  0  0  0  0  0  0  0  0  0
   24.8165    1.9132   -3.7198 C   0  0  0  0  0  0  0  0  0  0  0  0
   24.0878    3.1712   -3.1931 C   0  0  0  0  0  0  0  0  0  0  0  0
   24.9712    4.4373   -3.2773 C   0  0  0  0  0  0  0  0  0  0  0  0
   26.2423    4.4033   -2.4214 C   0  0  0  0  0  0  0  0  0  0  0  0
   27.3345    3.6579   -3.0184 N   0  0  0  0  0  0  0  0  0  0  0  0
   27.9096    3.9917   -4.1907 C   0  0  0  0  0  0  0  0  0  0  0  0
   28.4349    3.1530   -5.0487 N   0  0  0  0  0  0  0  0  0  0  0  0
   28.8855    3.9270   -6.0907 C   0  0  0  0  0  0  0  0  0  0  0  0
   29.5191    3.5486   -7.2830 C   0  0  0  0  0  0  0  0  0  0  0  0
   29.8817    4.5470   -8.1966 C   0  0  0  0  0  0  0  0  0  0  0  0
   29.6201    5.8934   -7.9277 C   0  0  0  0  0  0  0  0  0  0  0  0
   28.9897    6.2905   -6.7425 C   0  0  0  0  0  0  0  0  0  0  0  0
   28.6382    5.2741   -5.8521 C   0  0  0  0  0  0  0  0  0  0  0  0
   28.0262    5.2858   -4.6256 N   0  0  0  0  0  0  0  0  0  0  0  0
  1  2  1  0
  2  3  2  0
  3  4  1  0
  4  5  2  0
  5  6  1  0
  6  7  1  0
  6  8  2  0
  6  9  2  0
  5 10  1  0
 10 11  2  0
 11 12  1  0
 12 13  1  0
 13 14  1  0
 14 15  2  0
 14 16  1  0
 16 17  1  0
 17 18  1  0
 18 19  1  0
 19 20  1  0
 20 21  1  0
 21 22  1  0
 22 23  2  0
 23 24  1  0
 24 25  2  0
 25 26  1  0
 26 27  2  0
 27 28  1  0
 28 29  2  0
 29 30  1  0
 11  2  1  0
 18 12  1  0
 30 22  1  0
 29 24  1  0
M  END
$$$$
