
     RDKit          3D

 16 17  0  0  0  0  0  0  0  0999 V2000
  -20.1361    7.2129   15.6151 N   0  0  0  0  0  0  0  0  0  0  0  0
  -19.5745    6.1221   16.4003 C   0  0  0  0  0  0  0  0  0  0  0  0
  -20.6709    5.4344   17.2107 C   0  0  0  0  0  0  0  0  0  0  0  0
  -20.0884    4.3523   18.1108 C   0  0  0  0  0  0  0  0  0  0  0  0
  -21.1559    3.4638   18.7190 C   0  0  0  0  0  0  0  0  0  0  0  0
  -21.2046    2.2641   18.4319 O   0  0  0  0  0  0  0  0  0  0  0  0
  -22.1316    4.0881   19.6997 C   0  0  0  0  0  0  0  0  0  0  0  0
  -23.4374    4.4315   19.0617 C   0  0  0  0  0  0  0  0  0  0  0  0
  -24.3043    3.5455   18.4497 C   0  0  0  0  0  0  0  0  0  0  0  0
  -25.3892    4.2419   17.9950 N   0  0  0  0  0  0  0  0  0  0  0  0
  -25.2616    5.5746   18.3063 C   0  0  0  0  0  0  0  0  0  0  0  0
  -26.1239    6.6461   18.0435 C   0  0  0  0  0  0  0  0  0  0  0  0
  -25.7360    7.9140   18.4844 C   0  0  0  0  0  0  0  0  0  0  0  0
  -24.5343    8.0995   19.1620 C   0  0  0  0  0  0  0  0  0  0  0  0
  -23.6846    7.0167   19.4177 C   0  0  0  0  0  0  0  0  0  0  0  0
  -24.0492    5.7256   18.9811 C   0  0  0  0  0  0  0  0  0  0  0  0
  1  2  1  0
  2  3  1  0
  3  4  1  0
  4  5  1  0
  5  6  2  0
  5  7  1  0
  7  8  1  0
  8  9  2  0
  9 10  1  0
 10 11  1  0
 11 12  2  0
 12 13  1  0
 13 14  2  0
 14 15  1  0
 15 16  2  0
 16  8  1  0
 16 11  1  0
M  END
$$$$
