
     RDKit          3D

 26 28  0  0  0  0  0  0  0  0999 V2000
    5.1547   -9.8007   50.1354 C   0  0  0  0  0  0  0  0  0  0  0  0
    5.2421  -10.9843   49.2948 N   0  0  0  0  0  0  0  0  0  0  0  0
    4.4731  -10.8531   48.0424 C   0  0  0  0  0  0  0  0  0  0  0  0
    5.1487   -9.9398   46.9886 C   0  0  0  0  0  0  0  0  0  0  0  0
    4.3144   -9.8453   45.6851 C   0  0  0  0  0  0  0  0  0  0  0  0
    3.9166  -11.1257   44.9715 C   0  0  0  0  0  0  0  0  0  0  0  0
    4.8717  -12.1473   44.8145 C   0  0  0  0  0  0  0  0  0  0  0  0
    4.5295  -13.3226   44.1684 C   0  0  0  0  0  0  0  0  0  0  0  0
    3.3148  -13.5541   43.6486 N   0  0  0  0  0  0  0  0  0  0  0  0
    2.4156  -12.5496   43.7729 C   0  0  0  0  0  0  0  0  0  0  0  0
    2.6321  -11.3113   44.4067 C   0  0  0  0  0  0  0  0  0  0  0  0
    1.6410  -10.2895   44.4518 N   0  0  0  0  0  0  0  0  0  0  0  0
    1.6948   -9.4319   43.2535 C   0  0  0  0  0  0  0  0  0  0  0  0
    2.7436   -8.4956   43.4226 O   0  0  0  0  0  0  0  0  0  0  0  0
    0.4122   -8.6144   43.0728 C   0  0  0  0  0  0  0  0  0  0  0  0
   -0.8132   -9.5018   42.8999 C   0  0  0  0  0  0  0  0  0  0  0  0
   -0.6050  -10.8562   43.5688 C   0  0  0  0  0  0  0  0  0  0  0  0
    0.2677  -10.7480   44.8560 C   0  0  0  0  0  0  0  0  0  0  0  0
   -0.4313   -9.9353   45.8896 N   0  0  0  0  0  0  0  0  0  0  0  0
    0.3977   -9.7377   47.0910 C   0  0  0  0  0  0  0  0  0  0  0  0
    0.5552  -10.9914   47.9562 C   0  0  0  0  0  0  0  0  0  0  0  0
   -0.7990  -11.5770   48.3406 C   0  0  0  0  0  0  0  0  0  0  0  0
   -1.6978  -11.7366   47.1197 C   0  0  0  0  0  0  0  0  0  0  0  0
   -1.7504  -10.4434   46.3025 C   0  0  0  0  0  0  0  0  0  0  0  0
    6.4995  -10.3963   46.7880 O   0  0  0  0  0  0  0  0  0  0  0  0
    7.3381   -9.4437   46.1471 C   0  0  0  0  0  0  0  0  0  0  0  0
  1  2  1  0
  2  3  1  0
  3  4  1  0
  4  5  1  0
  5  6  1  0
  6  7  2  0
  7  8  1  0
  8  9  2  0
  9 10  1  0
 10 11  2  0
 11 12  1  0
 12 13  1  0
 13 14  1  0
 13 15  1  0
 15 16  1  0
 16 17  1  0
 17 18  1  0
 18 19  1  0
 19 20  1  0
 20 21  1  0
 21 22  1  0
 22 23  1  0
 23 24  1  0
  4 25  1  0
 25 26  1  0
 11  6  1  0
 18 12  1  0
 24 19  1  0
M  END
$$$$
