
     RDKit          3D

 15 16  0  0  0  0  0  0  0  0999 V2000
   -9.3748  -10.7165   24.3100 N   0  0  0  0  0  0  0  0  0  0  0  0
  -10.5096  -11.0741   23.4673 C   0  0  0  0  0  0  0  0  0  0  0  0
  -10.4378  -12.5415   23.0448 C   0  0  0  0  0  0  0  0  0  0  0  0
  -11.5754  -12.9350   22.1044 C   0  0  0  0  0  0  0  0  0  0  0  0
  -12.9093  -12.9991   22.8298 C   0  0  0  0  0  0  0  0  0  0  0  0
  -13.1080  -13.9186   23.6268 O   0  0  0  0  0  0  0  0  0  0  0  0
  -13.9224  -11.9649   22.5901 C   0  0  0  0  0  0  0  0  0  0  0  0
  -13.7941  -10.8468   21.7823 C   0  0  0  0  0  0  0  0  0  0  0  0
  -14.9609  -10.1304   21.8365 N   0  0  0  0  0  0  0  0  0  0  0  0
  -15.8629  -10.7521   22.6640 C   0  0  0  0  0  0  0  0  0  0  0  0
  -17.1678  -10.3811   23.0121 C   0  0  0  0  0  0  0  0  0  0  0  0
  -17.8668  -11.2129   23.8908 C   0  0  0  0  0  0  0  0  0  0  0  0
  -17.2816  -12.3684   24.3997 C   0  0  0  0  0  0  0  0  0  0  0  0
  -15.9762  -12.7231   24.0407 C   0  0  0  0  0  0  0  0  0  0  0  0
  -15.2442  -11.9032   23.1542 C   0  0  0  0  0  0  0  0  0  0  0  0
  1  2  1  0
  2  3  1  0
  3  4  1  0
  4  5  1  0
  5  6  2  0
  5  7  1  0
  7  8  2  0
  8  9  1  0
  9 10  1  0
 10 11  2  0
 11 12  1  0
 12 13  2  0
 13 14  1  0
 14 15  2  0
 15  7  1  0
 15 10  1  0
M  END
$$$$
