
     RDKit          3D

 29 32  0  0  0  0  0  0  0  0999 V2000
    0.6014    7.3113   -7.5292 N   0  0  0  0  0  0  0  0  0  0  0  0
   -0.6221    6.3082   -8.1078 S   0  0  0  0  0  0  0  0  0  0  0  0
   -0.0173    5.0137   -8.3325 O   0  0  0  0  0  0  0  0  0  0  0  0
   -1.2878    7.0304   -9.1686 O   0  0  0  0  0  0  0  0  0  0  0  0
   -1.7680    6.1270   -6.7634 C   0  0  0  0  0  0  0  0  0  0  0  0
   -3.1200    6.0448   -7.1290 C   0  0  0  0  0  0  0  0  0  0  0  0
   -4.0662    5.9801   -6.1301 C   0  0  0  0  0  0  0  0  0  0  0  0
   -3.7535    5.9996   -4.8237 N   0  0  0  0  0  0  0  0  0  0  0  0
   -2.4372    6.0875   -4.5064 C   0  0  0  0  0  0  0  0  0  0  0  0
   -1.3744    6.1461   -5.4137 C   0  0  0  0  0  0  0  0  0  0  0  0
   -0.0393    6.2181   -5.0091 N   0  0  0  0  0  0  0  0  0  0  0  0
    0.3366    7.0897   -3.8783 C   0  0  0  0  0  0  0  0  0  0  0  0
    0.4544    6.3499   -2.5482 C   0  0  0  0  0  0  0  0  0  0  0  0
    1.2972    5.0885   -2.6716 C   0  0  0  0  0  0  0  0  0  0  0  0
    0.7681    4.2103   -3.8006 C   0  0  0  0  0  0  0  0  0  0  0  0
    0.7339    4.9647   -5.1379 C   0  0  0  0  0  0  0  0  0  0  0  0
    2.0476    5.3370   -5.5506 O   0  0  0  0  0  0  0  0  0  0  0  0
    2.7274    4.2986   -6.2335 C   0  0  0  0  0  0  0  0  0  0  0  0
    4.1164    4.6792   -6.4306 N   0  0  0  0  0  0  0  0  0  0  0  0
    4.8372    4.6935   -5.1516 C   0  0  0  0  0  0  0  0  0  0  0  0
    6.2715    5.0552   -5.3581 C   0  0  0  0  0  0  0  0  0  0  0  0
    7.0037    5.8661   -4.6200 N   0  0  0  0  0  0  0  0  0  0  0  0
    8.2492    5.8689   -5.2012 C   0  0  0  0  0  0  0  0  0  0  0  0
    9.4115    6.5596   -4.8289 C   0  0  0  0  0  0  0  0  0  0  0  0
   10.5689    6.3919   -5.6003 C   0  0  0  0  0  0  0  0  0  0  0  0
   10.5682    5.5548   -6.7192 C   0  0  0  0  0  0  0  0  0  0  0  0
    9.4175    4.8575   -7.1064 C   0  0  0  0  0  0  0  0  0  0  0  0
    8.2797    5.0420   -6.3185 C   0  0  0  0  0  0  0  0  0  0  0  0
    7.0094    4.5369   -6.3956 N   0  0  0  0  0  0  0  0  0  0  0  0
  1  2  1  0
  2  3  2  0
  2  4  2  0
  2  5  1  0
  5  6  2  0
  6  7  1  0
  7  8  2  0
  8  9  1  0
  9 10  2  0
 10 11  1  0
 11 12  1  0
 12 13  1  0
 13 14  1  0
 14 15  1  0
 15 16  1  0
 16 17  1  0
 17 18  1  0
 18 19  1  0
 19 20  1  0
 20 21  1  0
 21 22  2  0
 22 23  1  0
 23 24  2  0
 24 25  1  0
 25 26  2  0
 26 27  1  0
 27 28  2  0
 28 29  1  0
 10  5  1  0
 16 11  1  0
 29 21  1  0
 28 23  1  0
M  END
$$$$
