
     RDKit          3D

 28 31  0  0  0  0  0  0  0  0999 V2000
    7.1526    1.8019   -7.1557 N   0  0  0  0  0  0  0  0  0  0  0  0
    7.9606    1.8037   -5.9399 C   0  0  0  0  0  0  0  0  0  0  0  0
    7.2702    2.5169   -4.7959 C   0  0  0  0  0  0  0  0  0  0  0  0
    6.3204    1.7760   -4.0563 C   0  0  0  0  0  0  0  0  0  0  0  0
    5.6899    2.3209   -2.9422 C   0  0  0  0  0  0  0  0  0  0  0  0
    6.0142    3.6101   -2.5576 C   0  0  0  0  0  0  0  0  0  0  0  0
    5.4356    4.1916   -1.4671 O   0  0  0  0  0  0  0  0  0  0  0  0
    6.9411    4.3618   -3.2776 C   0  0  0  0  0  0  0  0  0  0  0  0
    7.5750    3.8536   -4.4239 C   0  0  0  0  0  0  0  0  0  0  0  0
    8.4692    4.6237   -5.1737 N   0  0  0  0  0  0  0  0  0  0  0  0
    8.0105    4.9185   -6.5565 C   0  0  0  0  0  0  0  0  0  0  0  0
    7.9364    6.4175   -6.8105 C   0  0  0  0  0  0  0  0  0  0  0  0
    8.0424    6.9022   -7.9368 O   0  0  0  0  0  0  0  0  0  0  0  0
    7.6486    7.2759   -5.6061 C   0  0  0  0  0  0  0  0  0  0  0  0
    8.6719    7.0191   -4.5092 C   0  0  0  0  0  0  0  0  0  0  0  0
    9.3530    5.6446   -4.5923 C   0  0  0  0  0  0  0  0  0  0  0  0
    9.8268    5.2956   -3.2981 O   0  0  0  0  0  0  0  0  0  0  0  0
   10.8109    4.2792   -3.3386 C   0  0  0  0  0  0  0  0  0  0  0  0
   12.0998    4.9015   -3.5614 N   0  0  0  0  0  0  0  0  0  0  0  0
   13.1877    4.1082   -3.6441 C   0  0  0  0  0  0  0  0  0  0  0  0
   14.2838    4.2048   -2.9352 N   0  0  0  0  0  0  0  0  0  0  0  0
   15.1071    3.2060   -3.3971 C   0  0  0  0  0  0  0  0  0  0  0  0
   16.3977    2.8436   -2.9856 C   0  0  0  0  0  0  0  0  0  0  0  0
   17.0336    1.7756   -3.6321 C   0  0  0  0  0  0  0  0  0  0  0  0
   16.3988    1.0852   -4.6683 C   0  0  0  0  0  0  0  0  0  0  0  0
   15.1114    1.4333   -5.0945 C   0  0  0  0  0  0  0  0  0  0  0  0
   14.5006    2.4982   -4.4294 C   0  0  0  0  0  0  0  0  0  0  0  0
   13.2813    3.1072   -4.5748 N   0  0  0  0  0  0  0  0  0  0  0  0
  1  2  1  0
  2  3  1  0
  3  4  2  0
  4  5  1  0
  5  6  2  0
  6  7  1  0
  6  8  1  0
  8  9  2  0
  9 10  1  0
 10 11  1  0
 11 12  1  0
 12 13  2  0
 12 14  1  0
 14 15  1  0
 15 16  1  0
 16 17  1  0
 17 18  1  0
 18 19  1  0
 19 20  1  0
 20 21  2  0
 21 22  1  0
 22 23  2  0
 23 24  1  0
 24 25  2  0
 25 26  1  0
 26 27  2  0
 27 28  1  0
  9  3  1  0
 16 10  1  0
 28 20  1  0
 27 22  1  0
M  END
$$$$
