
     RDKit          3D

 19 20  0  0  0  0  0  0  0  0999 V2000
    7.5706    9.1280   -0.4592 N   0  0  0  0  0  0  0  0  0  0  0  0
    8.0777    8.6103   -1.7246 C   0  0  0  0  0  0  0  0  0  0  0  0
    8.1077    9.6893   -2.7968 C   0  0  0  0  0  0  0  0  0  0  0  0
    6.7156   10.0697   -3.2570 C   0  0  0  0  0  0  0  0  0  0  0  0
    5.9589    9.2495   -3.7807 O   0  0  0  0  0  0  0  0  0  0  0  0
    6.2870   11.4967   -3.0672 C   0  0  0  0  0  0  0  0  0  0  0  0
    5.8513   11.8038   -1.6615 C   0  0  0  0  0  0  0  0  0  0  0  0
    6.6447   12.2799   -0.8465 O   0  0  0  0  0  0  0  0  0  0  0  0
    4.4210   11.4879   -1.2848 C   0  0  0  0  0  0  0  0  0  0  0  0
    4.3290   10.1821   -0.5097 C   0  0  0  0  0  0  0  0  0  0  0  0
    2.9087    9.7956   -0.2450 C   0  0  0  0  0  0  0  0  0  0  0  0
    2.1621   10.1155    0.8718 C   0  0  0  0  0  0  0  0  0  0  0  0
    0.9118    9.5793    0.7201 N   0  0  0  0  0  0  0  0  0  0  0  0
    0.8201    8.9142   -0.4801 C   0  0  0  0  0  0  0  0  0  0  0  0
   -0.2568    8.2253   -1.0510 C   0  0  0  0  0  0  0  0  0  0  0  0
   -0.0577    7.6349   -2.3026 C   0  0  0  0  0  0  0  0  0  0  0  0
    1.1695    7.7310   -2.9542 C   0  0  0  0  0  0  0  0  0  0  0  0
    2.2357    8.4238   -2.3693 C   0  0  0  0  0  0  0  0  0  0  0  0
    2.0606    9.0288   -1.1075 C   0  0  0  0  0  0  0  0  0  0  0  0
  1  2  1  0
  2  3  1  0
  3  4  1  0
  4  5  2  0
  4  6  1  0
  6  7  1  0
  7  8  2  0
  7  9  1  0
  9 10  1  0
 10 11  1  0
 11 12  2  0
 12 13  1  0
 13 14  1  0
 14 15  2  0
 15 16  1  0
 16 17  2  0
 17 18  1  0
 18 19  2  0
 19 11  1  0
 19 14  1  0
M  END
$$$$
