
     RDKit          3D

 16 17  0  0  0  0  0  0  0  0999 V2000
    0.9306    6.2491   -7.8922 C   0  0  0  0  0  0  0  0  0  0  0  0
    0.3835    4.9528   -7.6984 O   0  0  0  0  0  0  0  0  0  0  0  0
    1.2587    3.9046   -7.5515 C   0  0  0  0  0  0  0  0  0  0  0  0
    2.6521    4.0433   -7.5961 C   0  0  0  0  0  0  0  0  0  0  0  0
    3.4869    2.9328   -7.4396 C   0  0  0  0  0  0  0  0  0  0  0  0
    2.9502    1.6589   -7.2351 C   0  0  0  0  0  0  0  0  0  0  0  0
    3.8486    0.4623   -7.0693 C   0  0  0  0  0  0  0  0  0  0  0  0
    4.6584    0.5678   -5.8605 N   0  0  0  0  0  0  0  0  0  0  0  0
    1.5576    1.5205   -7.1887 C   0  0  0  0  0  0  0  0  0  0  0  0
    0.6962    2.6228   -7.3444 C   0  0  0  0  0  0  0  0  0  0  0  0
   -0.6906    2.3356   -7.2761 N   0  0  0  0  0  0  0  0  0  0  0  0
   -1.3403    2.9668   -6.1168 C   0  0  0  0  0  0  0  0  0  0  0  0
   -2.7531    2.3962   -5.9741 C   0  0  0  0  0  0  0  0  0  0  0  0
   -3.5548    2.5792   -7.2628 C   0  0  0  0  0  0  0  0  0  0  0  0
   -2.7971    2.0136   -8.4641 C   0  0  0  0  0  0  0  0  0  0  0  0
   -1.3833    2.5933   -8.5481 C   0  0  0  0  0  0  0  0  0  0  0  0
  1  2  1  0
  2  3  1  0
  3  4  2  0
  4  5  1  0
  5  6  2  0
  6  7  1  0
  7  8  1  0
  6  9  1  0
  9 10  2  0
 10 11  1  0
 11 12  1  0
 12 13  1  0
 13 14  1  0
 14 15  1  0
 15 16  1  0
 10  3  1  0
 16 11  1  0
M  END
$$$$
