
     RDKit          3D

 16 17  0  0  0  0  0  0  0  0999 V2000
   79.8930  -32.3873    7.7824 N   0  0  0  0  0  0  0  0  0  0  0  0
   80.5840  -33.3942    7.1641 C   0  0  0  0  0  0  0  0  0  0  0  0
   81.2824  -33.1834    6.1832 O   0  0  0  0  0  0  0  0  0  0  0  0
   80.4116  -34.7426    7.7539 C   0  0  0  0  0  0  0  0  0  0  0  0
   79.0882  -35.2233    7.8281 C   0  0  0  0  0  0  0  0  0  0  0  0
   78.8313  -36.5084    8.2992 C   0  0  0  0  0  0  0  0  0  0  0  0
   79.8942  -37.3108    8.6840 C   0  0  0  0  0  0  0  0  0  0  0  0
   79.6545  -38.5500    9.1322 F   0  0  0  0  0  0  0  0  0  0  0  0
   81.2048  -36.8481    8.6124 C   0  0  0  0  0  0  0  0  0  0  0  0
   81.4988  -35.5487    8.1568 C   0  0  0  0  0  0  0  0  0  0  0  0
   82.8555  -35.1882    8.1584 N   0  0  0  0  0  0  0  0  0  0  0  0
   83.2230  -33.8894    8.7220 C   0  0  0  0  0  0  0  0  0  0  0  0
   84.7009  -33.9360    9.1205 C   0  0  0  0  0  0  0  0  0  0  0  0
   85.5808  -34.6308    8.0750 C   0  0  0  0  0  0  0  0  0  0  0  0
   84.8624  -34.7974    6.7402 C   0  0  0  0  0  0  0  0  0  0  0  0
   83.5371  -35.5503    6.9004 C   0  0  0  0  0  0  0  0  0  0  0  0
  1  2  1  0
  2  3  2  0
  2  4  1  0
  4  5  2  0
  5  6  1  0
  6  7  2  0
  7  8  1  0
  7  9  1  0
  9 10  2  0
 10 11  1  0
 11 12  1  0
 12 13  1  0
 13 14  1  0
 14 15  1  0
 15 16  1  0
 10  4  1  0
 16 11  1  0
M  END
$$$$
