
     RDKit          3D

 18 19  0  0  0  0  0  0  0  0999 V2000
   -0.8136   11.3410   20.3939 C   0  0  0  0  0  0  0  0  0  0  0  0
   -1.4313   10.9037   19.1485 N   0  0  0  0  0  0  0  0  0  0  0  0
   -2.8355   10.5122   19.3688 C   0  0  0  0  0  0  0  0  0  0  0  0
   -3.5116   10.0104   18.0635 C   0  0  0  0  0  0  0  0  0  0  0  0
   -5.0375   10.1309   18.1626 C   0  0  0  0  0  0  0  0  0  0  0  0
   -5.5248   11.5579   18.0236 C   0  0  0  0  0  0  0  0  0  0  0  0
   -4.7264   12.4769   17.8278 O   0  0  0  0  0  0  0  0  0  0  0  0
   -6.9628   11.8377   18.1329 C   0  0  0  0  0  0  0  0  0  0  0  0
   -7.4730   13.1246   18.0589 C   0  0  0  0  0  0  0  0  0  0  0  0
   -8.8287   13.0731   18.1959 N   0  0  0  0  0  0  0  0  0  0  0  0
   -9.2371   11.7719   18.3595 C   0  0  0  0  0  0  0  0  0  0  0  0
  -10.5309   11.2632   18.5337 C   0  0  0  0  0  0  0  0  0  0  0  0
  -10.6758    9.8829   18.6750 C   0  0  0  0  0  0  0  0  0  0  0  0
   -9.5670    9.0460   18.6417 C   0  0  0  0  0  0  0  0  0  0  0  0
   -8.2796    9.5710   18.4668 C   0  0  0  0  0  0  0  0  0  0  0  0
   -8.0935   10.9655   18.3227 C   0  0  0  0  0  0  0  0  0  0  0  0
   -3.2599    8.6099   17.8270 O   0  0  0  0  0  0  0  0  0  0  0  0
   -1.9073    8.3177   17.5003 C   0  0  0  0  0  0  0  0  0  0  0  0
  1  2  1  0
  2  3  1  0
  3  4  1  0
  4  5  1  0
  5  6  1  0
  6  7  2  0
  6  8  1  0
  8  9  2  0
  9 10  1  0
 10 11  1  0
 11 12  2  0
 12 13  1  0
 13 14  2  0
 14 15  1  0
 15 16  2  0
  4 17  1  0
 17 18  1  0
 16  8  1  0
 16 11  1  0
M  END
$$$$
