
     RDKit          3D

 25 26  0  0  0  0  0  0  0  0999 V2000
   18.9350  -24.3268    9.9528 C   0  0  0  0  0  0  0  0  0  0  0  0
   19.0131  -23.7018   11.2715 N   0  0  0  0  0  0  0  0  0  0  0  0
   20.3236  -23.0894   11.5131 C   0  0  0  0  0  0  0  0  0  0  0  0
   20.5705  -21.8437   10.6929 C   0  0  0  0  0  0  0  0  0  0  0  0
   19.7142  -20.7387   10.8034 C   0  0  0  0  0  0  0  0  0  0  0  0
   19.9384  -19.5837   10.0510 C   0  0  0  0  0  0  0  0  0  0  0  0
   21.0340  -19.5137    9.1876 C   0  0  0  0  0  0  0  0  0  0  0  0
   21.2872  -18.4274    8.3925 O   0  0  0  0  0  0  0  0  0  0  0  0
   21.0607  -17.1633    9.0141 C   0  0  0  0  0  0  0  0  0  0  0  0
   21.9037  -20.6123    9.0464 C   0  0  0  0  0  0  0  0  0  0  0  0
   23.0950  -20.5057    8.1101 C   0  0  0  0  0  0  0  0  0  0  0  0
   23.7113  -21.7929    7.9188 O   0  0  0  0  0  0  0  0  0  0  0  0
   24.1744  -19.5525    8.6665 C   0  0  0  0  0  0  0  0  0  0  0  0
   24.4591  -18.4885    8.1261 O   0  0  0  0  0  0  0  0  0  0  0  0
   24.8616  -20.1264    9.7299 N   0  0  0  0  0  0  0  0  0  0  0  0
   25.5456  -19.4337   10.7077 C   0  0  0  0  0  0  0  0  0  0  0  0
   25.5653  -18.2164   10.8467 O   0  0  0  0  0  0  0  0  0  0  0  0
   26.2431  -20.2904   11.7102 C   0  0  0  0  0  0  0  0  0  0  0  0
   26.7968  -21.5315   11.3599 C   0  0  0  0  0  0  0  0  0  0  0  0
   27.4449  -22.3054   12.3284 C   0  0  0  0  0  0  0  0  0  0  0  0
   27.5438  -21.8391   13.6403 C   0  0  0  0  0  0  0  0  0  0  0  0
   28.3381  -22.7992   14.8271 Cl  0  0  0  0  0  0  0  0  0  0  0  0
   27.0097  -20.6000   13.9927 C   0  0  0  0  0  0  0  0  0  0  0  0
   26.3662  -19.8216   13.0258 C   0  0  0  0  0  0  0  0  0  0  0  0
   21.6604  -21.7701    9.8112 C   0  0  0  0  0  0  0  0  0  0  0  0
  1  2  1  0
  2  3  1  0
  3  4  1  0
  4  5  2  0
  5  6  1  0
  6  7  2  0
  7  8  1  0
  8  9  1  0
  7 10  1  0
 10 11  1  0
 11 12  1  0
 11 13  1  0
 13 14  2  0
 13 15  1  0
 15 16  1  0
 16 17  2  0
 16 18  1  0
 18 19  2  0
 19 20  1  0
 20 21  2  0
 21 22  1  0
 21 23  1  0
 23 24  2  0
 10 25  2  0
 25  4  1  0
 24 18  1  0
M  END
$$$$
