
     RDKit          3D

 19 20  0  0  0  0  0  0  0  0999 V2000
   17.0198   24.7785  -15.5862 C   0  0  0  0  0  0  0  0  0  0  0  0
   16.7631   23.8659  -16.6669 N   0  0  0  0  0  0  0  0  0  0  0  0
   17.8051   23.2759  -17.3505 C   0  0  0  0  0  0  0  0  0  0  0  0
   18.9836   23.5879  -17.2037 O   0  0  0  0  0  0  0  0  0  0  0  0
   17.3540   22.2053  -18.3231 C   0  0  0  0  0  0  0  0  0  0  0  0
   17.1969   20.8483  -17.6730 C   0  0  0  0  0  0  0  0  0  0  0  0
   18.2426   19.9187  -17.8195 C   0  0  0  0  0  0  0  0  0  0  0  0
   18.1576   18.6424  -17.2615 C   0  0  0  0  0  0  0  0  0  0  0  0
   17.0208   18.2729  -16.5529 C   0  0  0  0  0  0  0  0  0  0  0  0
   16.7937   17.0532  -15.9748 O   0  0  0  0  0  0  0  0  0  0  0  0
   17.8312   16.0869  -16.0872 C   0  0  0  0  0  0  0  0  0  0  0  0
   15.9834   19.1984  -16.3912 C   0  0  0  0  0  0  0  0  0  0  0  0
   16.0562   20.5022  -16.9148 C   0  0  0  0  0  0  0  0  0  0  0  0
   15.0091   21.4430  -16.7454 N   0  0  0  0  0  0  0  0  0  0  0  0
   13.9700   21.2600  -17.7731 C   0  0  0  0  0  0  0  0  0  0  0  0
   13.1363   22.5416  -17.8585 C   0  0  0  0  0  0  0  0  0  0  0  0
   12.9209   23.2128  -16.4988 C   0  0  0  0  0  0  0  0  0  0  0  0
   13.0937   22.2274  -15.3507 C   0  0  0  0  0  0  0  0  0  0  0  0
   14.4683   21.5440  -15.3672 C   0  0  0  0  0  0  0  0  0  0  0  0
  1  2  1  0
  2  3  1  0
  3  4  2  0
  3  5  1  0
  5  6  1  0
  6  7  2  0
  7  8  1  0
  8  9  2  0
  9 10  1  0
 10 11  1  0
  9 12  1  0
 12 13  2  0
 13 14  1  0
 14 15  1  0
 15 16  1  0
 16 17  1  0
 17 18  1  0
 18 19  1  0
 13  6  1  0
 19 14  1  0
M  END
$$$$
