
     RDKit          3D

 19 20  0  0  0  0  0  0  0  0999 V2000
  -41.6020   28.1290   -6.9375 N   0  0  0  0  0  0  0  0  0  0  0  0
  -42.2413   29.4438   -6.9491 C   0  0  0  0  0  0  0  0  0  0  0  0
  -42.8912   29.7908   -5.6170 C   0  0  0  0  0  0  0  0  0  0  0  0
  -44.2204   29.0895   -5.4241 C   0  0  0  0  0  0  0  0  0  0  0  0
  -44.3784   28.2725   -4.5136 O   0  0  0  0  0  0  0  0  0  0  0  0
  -45.3337   29.4187   -6.4043 C   0  0  0  0  0  0  0  0  0  0  0  0
  -46.7112   29.2242   -5.7850 C   0  0  0  0  0  0  0  0  0  0  0  0
  -46.9809   30.2206   -4.6710 C   0  0  0  0  0  0  0  0  0  0  0  0
  -46.2474   31.1939   -4.4829 O   0  0  0  0  0  0  0  0  0  0  0  0
  -48.2148   29.9758   -3.8226 C   0  0  0  0  0  0  0  0  0  0  0  0
  -49.4651   30.2594   -4.5842 C   0  0  0  0  0  0  0  0  0  0  0  0
  -50.0046   31.5065   -4.8259 C   0  0  0  0  0  0  0  0  0  0  0  0
  -51.1442   31.3473   -5.5654 N   0  0  0  0  0  0  0  0  0  0  0  0
  -51.3577   30.0188   -5.8286 C   0  0  0  0  0  0  0  0  0  0  0  0
  -52.3829   29.4002   -6.5538 C   0  0  0  0  0  0  0  0  0  0  0  0
  -52.3484   28.0046   -6.6687 C   0  0  0  0  0  0  0  0  0  0  0  0
  -51.3283   27.2643   -6.0798 C   0  0  0  0  0  0  0  0  0  0  0  0
  -50.3137   27.8989   -5.3528 C   0  0  0  0  0  0  0  0  0  0  0  0
  -50.3241   29.3063   -5.2226 C   0  0  0  0  0  0  0  0  0  0  0  0
  1  2  1  0
  2  3  1  0
  3  4  1  0
  4  5  2  0
  4  6  1  0
  6  7  1  0
  7  8  1  0
  8  9  2  0
  8 10  1  0
 10 11  1  0
 11 12  2  0
 12 13  1  0
 13 14  1  0
 14 15  2  0
 15 16  1  0
 16 17  2  0
 17 18  1  0
 18 19  2  0
 19 11  1  0
 19 14  1  0
M  END
$$$$
