
     RDKit          3D

 25 28  0  0  0  0  0  0  0  0999 V2000
    1.6615    4.7545   -7.0684 N   0  0  0  0  0  0  0  0  0  0  0  0
    1.9635    3.4300   -6.6762 C   0  0  0  0  0  0  0  0  0  0  0  0
    1.5227    2.3591   -7.4493 C   0  0  0  0  0  0  0  0  0  0  0  0
    1.9367    1.0837   -7.1040 C   0  0  0  0  0  0  0  0  0  0  0  0
    2.7604    0.8116   -6.0712 N   0  0  0  0  0  0  0  0  0  0  0  0
    3.2097    1.8776   -5.3629 C   0  0  0  0  0  0  0  0  0  0  0  0
    2.8668    3.2069   -5.6149 C   0  0  0  0  0  0  0  0  0  0  0  0
    3.3067    4.3068   -4.8491 N   0  0  0  0  0  0  0  0  0  0  0  0
    2.5175    4.4657   -3.6126 C   0  0  0  0  0  0  0  0  0  0  0  0
    3.3916    4.7525   -2.3947 C   0  0  0  0  0  0  0  0  0  0  0  0
    4.5488    3.7670   -2.3310 C   0  0  0  0  0  0  0  0  0  0  0  0
    5.4202    3.8260   -3.5886 C   0  0  0  0  0  0  0  0  0  0  0  0
    4.7682    4.5772   -4.7631 C   0  0  0  0  0  0  0  0  0  0  0  0
    5.4854    4.3717   -6.1147 C   0  0  0  0  0  0  0  0  0  0  0  0
    6.8081    5.1304   -6.2551 C   0  0  0  0  0  0  0  0  0  0  0  0
    7.8516    4.6517   -5.3630 N   0  0  0  0  0  0  0  0  0  0  0  0
    8.6116    3.5636   -5.8065 C   0  0  0  0  0  0  0  0  0  0  0  0
    8.0827    2.6187   -6.6270 N   0  0  0  0  0  0  0  0  0  0  0  0
    8.8499    1.5719   -7.0038 C   0  0  0  0  0  0  0  0  0  0  0  0
   10.1342    1.3168   -6.6807 N   0  0  0  0  0  0  0  0  0  0  0  0
   10.6136    2.2778   -5.8800 C   0  0  0  0  0  0  0  0  0  0  0  0
   11.8696    2.3572   -5.3537 N   0  0  0  0  0  0  0  0  0  0  0  0
   11.9316    3.5002   -4.6030 C   0  0  0  0  0  0  0  0  0  0  0  0
   10.7917    4.1596   -4.6147 N   0  0  0  0  0  0  0  0  0  0  0  0
    9.9529    3.3976   -5.4074 C   0  0  0  0  0  0  0  0  0  0  0  0
  1  2  1  0
  2  3  2  0
  3  4  1  0
  4  5  2  0
  5  6  1  0
  6  7  2  0
  7  8  1  0
  8  9  1  0
  9 10  1  0
 10 11  1  0
 11 12  1  0
 12 13  1  0
 13 14  1  0
 14 15  1  0
 15 16  1  0
 16 17  1  0
 17 18  2  0
 18 19  1  0
 19 20  2  0
 20 21  1  0
 21 22  1  0
 22 23  1  0
 23 24  2  0
 24 25  1  0
  7  2  1  0
 13  8  1  0
 25 17  1  0
 25 21  2  0
M  END
$$$$
