
     RDKit          3D

 18 19  0  0  0  0  0  0  0  0999 V2000
   -0.3272   -5.1478  -17.5156 N   0  0  0  0  0  0  0  0  0  0  0  0
   -0.8418   -3.7889  -17.3620 C   0  0  0  0  0  0  0  0  0  0  0  0
   -2.0755   -3.5232  -18.2144 C   0  0  0  0  0  0  0  0  0  0  0  0
   -3.2954   -4.2193  -17.6521 C   0  0  0  0  0  0  0  0  0  0  0  0
   -3.7020   -5.2781  -18.1350 O   0  0  0  0  0  0  0  0  0  0  0  0
   -3.9512   -3.6099  -16.4270 C   0  0  0  0  0  0  0  0  0  0  0  0
   -5.4725   -3.6733  -16.5294 C   0  0  0  0  0  0  0  0  0  0  0  0
   -6.0074   -2.7120  -17.5758 C   0  0  0  0  0  0  0  0  0  0  0  0
   -5.2324   -1.9687  -18.1841 O   0  0  0  0  0  0  0  0  0  0  0  0
   -7.4501   -2.6628  -17.8413 C   0  0  0  0  0  0  0  0  0  0  0  0
   -7.9961   -1.8284  -18.8043 C   0  0  0  0  0  0  0  0  0  0  0  0
   -9.3489   -1.9995  -18.8241 N   0  0  0  0  0  0  0  0  0  0  0  0
   -9.7202   -2.9307  -17.8852 C   0  0  0  0  0  0  0  0  0  0  0  0
  -10.9984   -3.4060  -17.5640 C   0  0  0  0  0  0  0  0  0  0  0  0
  -11.1036   -4.3665  -16.5576 C   0  0  0  0  0  0  0  0  0  0  0  0
   -9.9715   -4.8317  -15.8998 C   0  0  0  0  0  0  0  0  0  0  0  0
   -8.7002   -4.3456  -16.2331 C   0  0  0  0  0  0  0  0  0  0  0  0
   -8.5545   -3.3720  -17.2483 C   0  0  0  0  0  0  0  0  0  0  0  0
  1  2  1  0
  2  3  1  0
  3  4  1  0
  4  5  2  0
  4  6  1  0
  6  7  1  0
  7  8  1  0
  8  9  2  0
  8 10  1  0
 10 11  2  0
 11 12  1  0
 12 13  1  0
 13 14  2  0
 14 15  1  0
 15 16  2  0
 16 17  1  0
 17 18  2  0
 18 10  1  0
 18 13  1  0
M  END
$$$$
