
     RDKit          3D

 30 33  0  0  0  0  0  0  0  0999 V2000
  -25.3475    4.7851   23.4424 C   0  0  0  0  0  0  0  0  0  0  0  0
  -26.1600    4.7588   24.6111 O   0  0  0  0  0  0  0  0  0  0  0  0
  -26.1496    5.8792   25.3963 C   0  0  0  0  0  0  0  0  0  0  0  0
  -27.0669    5.8682   26.4413 C   0  0  0  0  0  0  0  0  0  0  0  0
  -27.1588    6.9513   27.3143 C   0  0  0  0  0  0  0  0  0  0  0  0
  -26.3190    8.0704   27.1673 C   0  0  0  0  0  0  0  0  0  0  0  0
  -26.4923    9.2309   28.1225 C   0  0  0  0  0  0  0  0  0  0  0  0
  -26.0588    8.9016   29.4794 N   0  0  0  0  0  0  0  0  0  0  0  0
  -25.3772    8.0854   26.1200 C   0  0  0  0  0  0  0  0  0  0  0  0
  -24.5025    9.1505   25.9414 N   0  0  0  0  0  0  0  0  0  0  0  0
  -23.2128    9.1387   26.6221 C   0  0  0  0  0  0  0  0  0  0  0  0
  -22.6022    7.8530   26.4793 O   0  0  0  0  0  0  0  0  0  0  0  0
  -22.4960    7.1833   27.7253 C   0  0  0  0  0  0  0  0  0  0  0  0
  -21.3601    7.6847   28.4555 N   0  0  0  0  0  0  0  0  0  0  0  0
  -20.1017    7.4382   28.0446 C   0  0  0  0  0  0  0  0  0  0  0  0
  -19.0369    7.3678   28.8051 N   0  0  0  0  0  0  0  0  0  0  0  0
  -17.9939    7.0978   27.9508 C   0  0  0  0  0  0  0  0  0  0  0  0
  -16.6320    6.9058   28.2265 C   0  0  0  0  0  0  0  0  0  0  0  0
  -15.7629    6.6347   27.1621 C   0  0  0  0  0  0  0  0  0  0  0  0
  -16.2393    6.5591   25.8494 C   0  0  0  0  0  0  0  0  0  0  0  0
  -17.5952    6.7474   25.5545 C   0  0  0  0  0  0  0  0  0  0  0  0
  -18.4368    7.0154   26.6331 C   0  0  0  0  0  0  0  0  0  0  0  0
  -19.7844    7.2494   26.7213 N   0  0  0  0  0  0  0  0  0  0  0  0
  -22.2480   10.1583   26.0081 C   0  0  0  0  0  0  0  0  0  0  0  0
  -22.1798    9.9976   24.4953 C   0  0  0  0  0  0  0  0  0  0  0  0
  -23.5518   10.1361   23.8828 C   0  0  0  0  0  0  0  0  0  0  0  0
  -23.6875   10.3330   22.6684 O   0  0  0  0  0  0  0  0  0  0  0  0
  -24.7549   10.0509   24.8268 C   0  0  0  0  0  0  0  0  0  0  0  0
  -25.0387   11.3327   25.3589 O   0  0  0  0  0  0  0  0  0  0  0  0
  -25.3154    6.9853   25.2400 C   0  0  0  0  0  0  0  0  0  0  0  0
  1  2  1  0
  2  3  1  0
  3  4  2  0
  4  5  1  0
  5  6  2  0
  6  7  1  0
  7  8  1  0
  6  9  1  0
  9 10  1  0
 10 11  1  0
 11 12  1  0
 12 13  1  0
 13 14  1  0
 14 15  1  0
 15 16  2  0
 16 17  1  0
 17 18  2  0
 18 19  1  0
 19 20  2  0
 20 21  1  0
 21 22  2  0
 22 23  1  0
 11 24  1  0
 24 25  1  0
 25 26  1  0
 26 27  2  0
 26 28  1  0
 28 29  1  0
  9 30  2  0
 30  3  1  0
 28 10  1  0
 23 15  1  0
 22 17  1  0
M  END
$$$$
