
     RDKit          3D

 28 31  0  0  0  0  0  0  0  0999 V2000
  -13.7244    5.6573  -21.2215 N   0  0  0  0  0  0  0  0  0  0  0  0
  -13.4817    6.9968  -21.0563 C   0  0  0  0  0  0  0  0  0  0  0  0
  -13.6651    7.7866  -21.9728 O   0  0  0  0  0  0  0  0  0  0  0  0
  -13.0084    7.4059  -19.7069 C   0  0  0  0  0  0  0  0  0  0  0  0
  -13.7516    6.9729  -18.5961 C   0  0  0  0  0  0  0  0  0  0  0  0
  -13.3607    7.3305  -17.3073 C   0  0  0  0  0  0  0  0  0  0  0  0
  -12.2346    8.1262  -17.1242 C   0  0  0  0  0  0  0  0  0  0  0  0
  -11.4942    8.5625  -18.2271 C   0  0  0  0  0  0  0  0  0  0  0  0
  -11.8550    8.2044  -19.5397 C   0  0  0  0  0  0  0  0  0  0  0  0
  -11.1016    8.6349  -20.6529 N   0  0  0  0  0  0  0  0  0  0  0  0
  -11.5638    9.9980  -21.0483 C   0  0  0  0  0  0  0  0  0  0  0  0
  -10.8688   10.4439  -22.3216 C   0  0  0  0  0  0  0  0  0  0  0  0
  -10.9915   11.5832  -22.7727 O   0  0  0  0  0  0  0  0  0  0  0  0
  -10.0275    9.4014  -23.0046 C   0  0  0  0  0  0  0  0  0  0  0  0
   -9.0273    8.8292  -22.0072 C   0  0  0  0  0  0  0  0  0  0  0  0
   -9.6202    8.5000  -20.6072 C   0  0  0  0  0  0  0  0  0  0  0  0
   -9.1671    7.0691  -20.1685 C   0  0  0  0  0  0  0  0  0  0  0  0
   -7.7078    6.8574  -20.1129 N   0  0  0  0  0  0  0  0  0  0  0  0
   -7.1060    7.5107  -18.9431 C   0  0  0  0  0  0  0  0  0  0  0  0
   -5.6200    7.6153  -19.0701 C   0  0  0  0  0  0  0  0  0  0  0  0
   -4.8917    8.7006  -18.8774 N   0  0  0  0  0  0  0  0  0  0  0  0
   -3.5905    8.3213  -19.1022 C   0  0  0  0  0  0  0  0  0  0  0  0
   -2.4119    9.0800  -19.0547 C   0  0  0  0  0  0  0  0  0  0  0  0
   -1.1922    8.4421  -19.3224 C   0  0  0  0  0  0  0  0  0  0  0  0
   -1.1480    7.0787  -19.6302 C   0  0  0  0  0  0  0  0  0  0  0  0
   -2.3152    6.3075  -19.6876 C   0  0  0  0  0  0  0  0  0  0  0  0
   -3.5155    6.9680  -19.4158 C   0  0  0  0  0  0  0  0  0  0  0  0
   -4.8193    6.5449  -19.3930 N   0  0  0  0  0  0  0  0  0  0  0  0
  1  2  1  0
  2  3  2  0
  2  4  1  0
  4  5  2  0
  5  6  1  0
  6  7  2  0
  7  8  1  0
  8  9  2  0
  9 10  1  0
 10 11  1  0
 11 12  1  0
 12 13  2  0
 12 14  1  0
 14 15  1  0
 15 16  1  0
 16 17  1  0
 17 18  1  0
 18 19  1  0
 19 20  1  0
 20 21  2  0
 21 22  1  0
 22 23  2  0
 23 24  1  0
 24 25  2  0
 25 26  1  0
 26 27  2  0
 27 28  1  0
  9  4  1  0
 16 10  1  0
 28 20  1  0
 27 22  1  0
M  END
$$$$
