
     RDKit          3D

 15 16  0  0  0  0  0  0  0  0999 V2000
   11.8233   12.0484   11.1219 N   0  0  0  0  0  0  0  0  0  0  0  0
   10.6885   11.6908   10.2792 C   0  0  0  0  0  0  0  0  0  0  0  0
   10.7602   10.2234    9.8566 C   0  0  0  0  0  0  0  0  0  0  0  0
    9.6227    9.8299    8.9163 C   0  0  0  0  0  0  0  0  0  0  0  0
    8.2888    9.7657    9.6417 C   0  0  0  0  0  0  0  0  0  0  0  0
    8.0901    8.8462   10.4386 O   0  0  0  0  0  0  0  0  0  0  0  0
    7.2756   10.8000    9.4020 C   0  0  0  0  0  0  0  0  0  0  0  0
    7.4040   11.9180    8.5942 C   0  0  0  0  0  0  0  0  0  0  0  0
    6.2372   12.6345    8.6484 N   0  0  0  0  0  0  0  0  0  0  0  0
    5.3351   12.0127    9.4759 C   0  0  0  0  0  0  0  0  0  0  0  0
    4.0303   12.3837    9.8239 C   0  0  0  0  0  0  0  0  0  0  0  0
    3.3313   11.5520   10.7026 C   0  0  0  0  0  0  0  0  0  0  0  0
    3.9164   10.3964   11.2116 C   0  0  0  0  0  0  0  0  0  0  0  0
    5.2219   10.0417   10.8525 C   0  0  0  0  0  0  0  0  0  0  0  0
    5.9539   10.8616    9.9661 C   0  0  0  0  0  0  0  0  0  0  0  0
  1  2  1  0
  2  3  1  0
  3  4  1  0
  4  5  1  0
  5  6  2  0
  5  7  1  0
  7  8  2  0
  8  9  1  0
  9 10  1  0
 10 11  2  0
 11 12  1  0
 12 13  2  0
 13 14  1  0
 14 15  2  0
 15  7  1  0
 15 10  1  0
M  END
$$$$
