
     RDKit          3D

 30 33  0  0  0  0  0  0  0  0999 V2000
  -36.3289    4.0289   38.5670 N   0  0  0  0  0  0  0  0  0  0  0  0
  -36.6447    5.0236   39.5897 C   0  0  0  0  0  0  0  0  0  0  0  0
  -36.8783    6.4340   39.0294 C   0  0  0  0  0  0  0  0  0  0  0  0
  -35.6048    7.2508   38.7529 C   0  0  0  0  0  0  0  0  0  0  0  0
  -34.7312    6.7175   37.6379 C   0  0  0  0  0  0  0  0  0  0  0  0
  -35.2025    6.8054   36.3190 C   0  0  0  0  0  0  0  0  0  0  0  0
  -34.4649    6.2253   35.3023 C   0  0  0  0  0  0  0  0  0  0  0  0
  -33.3046    5.5680   35.5015 N   0  0  0  0  0  0  0  0  0  0  0  0
  -32.8570    5.5116   36.7779 C   0  0  0  0  0  0  0  0  0  0  0  0
  -33.5001    6.0722   37.8870 C   0  0  0  0  0  0  0  0  0  0  0  0
  -32.9810    6.0040   39.1844 N   0  0  0  0  0  0  0  0  0  0  0  0
  -32.5347    4.6772   39.6518 C   0  0  0  0  0  0  0  0  0  0  0  0
  -32.2858    4.6894   41.1563 C   0  0  0  0  0  0  0  0  0  0  0  0
  -32.4991    3.6985   41.8598 O   0  0  0  0  0  0  0  0  0  0  0  0
  -31.6057    5.9149   41.7331 C   0  0  0  0  0  0  0  0  0  0  0  0
  -32.1935    7.1875   41.1437 C   0  0  0  0  0  0  0  0  0  0  0  0
  -32.1780    7.1791   39.6039 C   0  0  0  0  0  0  0  0  0  0  0  0
  -30.7635    7.1671   38.9767 C   0  0  0  0  0  0  0  0  0  0  0  0
  -29.8829    8.3525   39.3996 C   0  0  0  0  0  0  0  0  0  0  0  0
  -28.4886    8.2947   38.7578 C   0  0  0  0  0  0  0  0  0  0  0  0
  -27.6966    7.2627   39.4059 N   0  0  0  0  0  0  0  0  0  0  0  0
  -26.4174    7.0552   38.8774 C   0  0  0  0  0  0  0  0  0  0  0  0
  -25.7279    8.0570   38.2704 N   0  0  0  0  0  0  0  0  0  0  0  0
  -24.4832    7.8003   37.8043 C   0  0  0  0  0  0  0  0  0  0  0  0
  -23.7917    6.6421   37.8486 N   0  0  0  0  0  0  0  0  0  0  0  0
  -24.5160    5.6879   38.4478 C   0  0  0  0  0  0  0  0  0  0  0  0
  -24.1469    4.3949   38.6779 N   0  0  0  0  0  0  0  0  0  0  0  0
  -25.1945    3.7707   39.3011 C   0  0  0  0  0  0  0  0  0  0  0  0
  -26.2133    4.5853   39.4890 N   0  0  0  0  0  0  0  0  0  0  0  0
  -25.7926    5.7956   38.9690 C   0  0  0  0  0  0  0  0  0  0  0  0
  1  2  1  0
  2  3  1  0
  3  4  1  0
  4  5  1  0
  5  6  2  0
  6  7  1  0
  7  8  2  0
  8  9  1  0
  9 10  2  0
 10 11  1  0
 11 12  1  0
 12 13  1  0
 13 14  2  0
 13 15  1  0
 15 16  1  0
 16 17  1  0
 17 18  1  0
 18 19  1  0
 19 20  1  0
 20 21  1  0
 21 22  1  0
 22 23  2  0
 23 24  1  0
 24 25  2  0
 25 26  1  0
 26 27  1  0
 27 28  1  0
 28 29  2  0
 29 30  1  0
 10  5  1  0
 17 11  1  0
 30 22  1  0
 30 26  2  0
M  END
$$$$
