
     RDKit          3D

 27 30  0  0  0  0  0  0  0  0999 V2000
  -29.6313   10.1932    4.8695 N   0  0  0  0  0  0  0  0  0  0  0  0
  -28.6699   11.2555    4.5709 C   0  0  0  0  0  0  0  0  0  0  0  0
  -27.2867   11.0136    5.1984 C   0  0  0  0  0  0  0  0  0  0  0  0
  -27.2697   11.0332    6.7152 C   0  0  0  0  0  0  0  0  0  0  0  0
  -27.5654   12.2341    7.3800 C   0  0  0  0  0  0  0  0  0  0  0  0
  -27.5331   12.2686    8.7646 C   0  0  0  0  0  0  0  0  0  0  0  0
  -27.2298   11.2040    9.5292 N   0  0  0  0  0  0  0  0  0  0  0  0
  -26.9487   10.0531    8.8727 C   0  0  0  0  0  0  0  0  0  0  0  0
  -26.9326    9.8987    7.4798 C   0  0  0  0  0  0  0  0  0  0  0  0
  -26.6209    8.6816    6.8496 N   0  0  0  0  0  0  0  0  0  0  0  0
  -27.8162    7.8205    6.6757 C   0  0  0  0  0  0  0  0  0  0  0  0
  -27.7375    6.5530    7.5075 C   0  0  0  0  0  0  0  0  0  0  0  0
  -28.6994    6.1260    8.1477 O   0  0  0  0  0  0  0  0  0  0  0  0
  -26.4354    5.7885    7.4709 C   0  0  0  0  0  0  0  0  0  0  0  0
  -25.3425    6.5785    6.7605 C   0  0  0  0  0  0  0  0  0  0  0  0
  -25.3390    8.0403    7.2412 C   0  0  0  0  0  0  0  0  0  0  0  0
  -24.1462    8.8254    6.6230 C   0  0  0  0  0  0  0  0  0  0  0  0
  -22.8616    8.3325    7.1339 N   0  0  0  0  0  0  0  0  0  0  0  0
  -21.7831    9.1439    7.0569 C   0  0  0  0  0  0  0  0  0  0  0  0
  -20.6236    8.8435    6.5289 N   0  0  0  0  0  0  0  0  0  0  0  0
  -19.8407    9.9582    6.7125 C   0  0  0  0  0  0  0  0  0  0  0  0
  -18.5127   10.1957    6.3287 C   0  0  0  0  0  0  0  0  0  0  0  0
  -17.9330   11.4323    6.6442 C   0  0  0  0  0  0  0  0  0  0  0  0
  -18.6596   12.4101    7.3297 C   0  0  0  0  0  0  0  0  0  0  0  0
  -19.9855   12.1911    7.7228 C   0  0  0  0  0  0  0  0  0  0  0  0
  -20.5387   10.9518    7.3915 C   0  0  0  0  0  0  0  0  0  0  0  0
  -21.7730   10.3965    7.6110 N   0  0  0  0  0  0  0  0  0  0  0  0
  1  2  1  0
  2  3  1  0
  3  4  1  0
  4  5  2  0
  5  6  1  0
  6  7  2  0
  7  8  1  0
  8  9  2  0
  9 10  1  0
 10 11  1  0
 11 12  1  0
 12 13  2  0
 12 14  1  0
 14 15  1  0
 15 16  1  0
 16 17  1  0
 17 18  1  0
 18 19  1  0
 19 20  2  0
 20 21  1  0
 21 22  2  0
 22 23  1  0
 23 24  2  0
 24 25  1  0
 25 26  2  0
 26 27  1  0
  9  4  1  0
 16 10  1  0
 27 19  1  0
 26 21  1  0
M  END
$$$$
