
     RDKit          3D

 27 29  0  0  0  0  0  0  0  0999 V2000
    0.5992  -17.3977   27.9989 C   0  0  0  0  0  0  0  0  0  0  0  0
    1.1337  -18.5042   28.7136 O   0  0  0  0  0  0  0  0  0  0  0  0
    0.1447  -19.3774   29.2217 C   0  0  0  0  0  0  0  0  0  0  0  0
   -0.7869  -20.1430   28.2677 C   0  0  0  0  0  0  0  0  0  0  0  0
   -1.3506  -19.6481   27.2997 O   0  0  0  0  0  0  0  0  0  0  0  0
   -0.9224  -21.6052   28.6485 C   0  0  0  0  0  0  0  0  0  0  0  0
   -0.3163  -21.6119   30.0562 C   0  0  0  0  0  0  0  0  0  0  0  0
    0.0297  -22.8642   30.7631 N   0  0  0  0  0  0  0  0  0  0  0  0
   -1.0884  -23.3722   31.5857 C   0  0  0  0  0  0  0  0  0  0  0  0
   -2.1475  -24.1308   30.7851 C   0  0  0  0  0  0  0  0  0  0  0  0
   -1.5304  -25.2697   29.9833 C   0  0  0  0  0  0  0  0  0  0  0  0
   -0.3203  -24.8010   29.1754 C   0  0  0  0  0  0  0  0  0  0  0  0
    0.6670  -23.9981   30.0508 C   0  0  0  0  0  0  0  0  0  0  0  0
    1.9847  -23.7093   29.3028 C   0  0  0  0  0  0  0  0  0  0  0  0
    3.1495  -23.3790   30.2530 C   0  0  0  0  0  0  0  0  0  0  0  0
    3.7311  -22.0746   30.0081 N   0  0  0  0  0  0  0  0  0  0  0  0
    4.5063  -21.8337   28.8956 C   0  0  0  0  0  0  0  0  0  0  0  0
    4.8653  -22.7281   28.1342 O   0  0  0  0  0  0  0  0  0  0  0  0
    4.8735  -20.4147   28.6012 C   0  0  0  0  0  0  0  0  0  0  0  0
    5.4158  -20.1288   27.3358 C   0  0  0  0  0  0  0  0  0  0  0  0
    5.7694  -18.8206   26.9875 C   0  0  0  0  0  0  0  0  0  0  0  0
    5.5848  -17.7913   27.9067 C   0  0  0  0  0  0  0  0  0  0  0  0
    6.0166  -16.1796   27.4824 Cl  0  0  0  0  0  0  0  0  0  0  0  0
    5.0579  -18.0602   29.1703 C   0  0  0  0  0  0  0  0  0  0  0  0
    4.7101  -19.3708   29.5217 C   0  0  0  0  0  0  0  0  0  0  0  0
    0.8425  -20.5856   29.8997 C   0  0  0  0  0  0  0  0  0  0  0  0
    1.5778  -20.2906   31.1445 N   0  0  0  0  0  0  0  0  0  0  0  0
  1  2  1  0
  2  3  1  0
  3  4  1  0
  4  5  2  0
  4  6  1  0
  6  7  1  0
  7  8  1  0
  8  9  1  0
  9 10  1  0
 10 11  1  0
 11 12  1  0
 12 13  1  0
 13 14  1  0
 14 15  1  0
 15 16  1  0
 16 17  1  0
 17 18  2  0
 17 19  1  0
 19 20  2  0
 20 21  1  0
 21 22  2  0
 22 23  1  0
 22 24  1  0
 24 25  2  0
  7 26  1  0
 26 27  1  0
 26  3  1  0
 13  8  1  0
 25 19  1  0
M  END
$$$$
