
     RDKit          3D

 19 20  0  0  0  0  0  0  0  0999 V2000
  -38.0730   -9.4730   49.1239 N   0  0  0  0  0  0  0  0  0  0  0  0
  -37.5659   -9.9906   47.8585 C   0  0  0  0  0  0  0  0  0  0  0  0
  -37.5359   -8.9117   46.7863 C   0  0  0  0  0  0  0  0  0  0  0  0
  -38.9280   -8.5312   46.3261 C   0  0  0  0  0  0  0  0  0  0  0  0
  -39.6848   -9.3514   45.8024 O   0  0  0  0  0  0  0  0  0  0  0  0
  -39.3567   -7.1042   46.5159 C   0  0  0  0  0  0  0  0  0  0  0  0
  -39.7924   -6.7971   47.9216 C   0  0  0  0  0  0  0  0  0  0  0  0
  -38.9989   -6.3211   48.7366 O   0  0  0  0  0  0  0  0  0  0  0  0
  -41.2226   -7.1130   48.2983 C   0  0  0  0  0  0  0  0  0  0  0  0
  -41.3146   -8.4189   49.0734 C   0  0  0  0  0  0  0  0  0  0  0  0
  -42.7349   -8.8053   49.3381 C   0  0  0  0  0  0  0  0  0  0  0  0
  -43.4815   -8.4854   50.4549 C   0  0  0  0  0  0  0  0  0  0  0  0
  -44.7318   -9.0217   50.3032 N   0  0  0  0  0  0  0  0  0  0  0  0
  -44.8235   -9.6867   49.1030 C   0  0  0  0  0  0  0  0  0  0  0  0
  -45.9005  -10.3757   48.5321 C   0  0  0  0  0  0  0  0  0  0  0  0
  -45.7013  -10.9660   47.2805 C   0  0  0  0  0  0  0  0  0  0  0  0
  -44.4741  -10.8699   46.6289 C   0  0  0  0  0  0  0  0  0  0  0  0
  -43.4079  -10.1772   47.2138 C   0  0  0  0  0  0  0  0  0  0  0  0
  -43.5830   -9.5722   48.4756 C   0  0  0  0  0  0  0  0  0  0  0  0
  1  2  1  0
  2  3  1  0
  3  4  1  0
  4  5  2  0
  4  6  1  0
  6  7  1  0
  7  8  2  0
  7  9  1  0
  9 10  1  0
 10 11  1  0
 11 12  2  0
 12 13  1  0
 13 14  1  0
 14 15  2  0
 15 16  1  0
 16 17  2  0
 17 18  1  0
 18 19  2  0
 19 11  1  0
 19 14  1  0
M  END
$$$$
