
     RDKit          3D

 22 24  0  0  0  0  0  0  0  0999 V2000
  -28.6263   -8.4389   34.3016 N   0  0  0  0  0  0  0  0  0  0  0  0
  -28.6569   -9.0546   32.9668 C   0  0  0  0  0  0  0  0  0  0  0  0
  -27.2636   -9.0489   32.3551 C   0  0  0  0  0  0  0  0  0  0  0  0
  -26.4885   -8.0990   32.4697 O   0  0  0  0  0  0  0  0  0  0  0  0
  -26.8819  -10.1824   31.4912 C   0  0  0  0  0  0  0  0  0  0  0  0
  -26.7843   -9.8956   30.1251 C   0  0  0  0  0  0  0  0  0  0  0  0
  -26.3965  -10.9108   29.2758 C   0  0  0  0  0  0  0  0  0  0  0  0
  -26.1033  -12.1550   29.6974 N   0  0  0  0  0  0  0  0  0  0  0  0
  -26.1806  -12.3852   31.0321 C   0  0  0  0  0  0  0  0  0  0  0  0
  -26.5591  -11.4516   32.0023 C   0  0  0  0  0  0  0  0  0  0  0  0
  -26.5917  -11.7476   33.3778 N   0  0  0  0  0  0  0  0  0  0  0  0
  -27.7992  -12.4705   33.8078 C   0  0  0  0  0  0  0  0  0  0  0  0
  -27.6908  -13.9790   33.6135 C   0  0  0  0  0  0  0  0  0  0  0  0
  -26.3334  -14.5342   34.0205 C   0  0  0  0  0  0  0  0  0  0  0  0
  -25.5094  -13.5096   34.7881 C   0  0  0  0  0  0  0  0  0  0  0  0
  -25.2925  -12.1867   33.9899 C   0  0  0  0  0  0  0  0  0  0  0  0
  -24.5826  -11.2669   34.9116 N   0  0  0  0  0  0  0  0  0  0  0  0
  -24.7329   -9.8581   34.5119 C   0  0  0  0  0  0  0  0  0  0  0  0
  -23.7516   -8.8977   35.2031 C   0  0  0  0  0  0  0  0  0  0  0  0
  -23.2356   -9.4687   36.5140 C   0  0  0  0  0  0  0  0  0  0  0  0
  -22.5847  -10.8328   36.2844 C   0  0  0  0  0  0  0  0  0  0  0  0
  -23.1570  -11.5774   35.0692 C   0  0  0  0  0  0  0  0  0  0  0  0
  1  2  1  0
  2  3  1  0
  3  4  2  0
  3  5  1  0
  5  6  2  0
  6  7  1  0
  7  8  2  0
  8  9  1  0
  9 10  2  0
 10 11  1  0
 11 12  1  0
 12 13  1  0
 13 14  1  0
 14 15  1  0
 15 16  1  0
 16 17  1  0
 17 18  1  0
 18 19  1  0
 19 20  1  0
 20 21  1  0
 21 22  1  0
 10  5  1  0
 16 11  1  0
 22 17  1  0
M  END
$$$$
