
     RDKit          3D

 26 28  0  0  0  0  0  0  0  0999 V2000
   33.3815   -2.3111  -62.4354 C   0  0  0  0  0  0  0  0  0  0  0  0
   32.4836   -2.7224  -61.4103 O   0  0  0  0  0  0  0  0  0  0  0  0
   33.1431   -3.5218  -60.4202 C   0  0  0  0  0  0  0  0  0  0  0  0
   32.0798   -4.4093  -59.7541 C   0  0  0  0  0  0  0  0  0  0  0  0
   31.4374   -3.7965  -58.5142 C   0  0  0  0  0  0  0  0  0  0  0  0
   31.5415   -2.2810  -58.5336 C   0  0  0  0  0  0  0  0  0  0  0  0
   33.0288   -1.8368  -58.5296 C   0  0  0  0  0  0  0  0  0  0  0  0
   33.1644   -0.3645  -58.5774 N   0  0  0  0  0  0  0  0  0  0  0  0
   32.6858    0.2580  -59.8140 C   0  0  0  0  0  0  0  0  0  0  0  0
   32.8172    1.7795  -59.7408 C   0  0  0  0  0  0  0  0  0  0  0  0
   31.9791    2.3693  -58.6076 C   0  0  0  0  0  0  0  0  0  0  0  0
   31.6314    1.3339  -57.5414 C   0  0  0  0  0  0  0  0  0  0  0  0
   32.7589    0.3216  -57.3457 C   0  0  0  0  0  0  0  0  0  0  0  0
   33.8335   -2.6448  -59.4785 N   0  0  0  0  0  0  0  0  0  0  0  0
   35.0820   -3.0852  -58.9804 C   0  0  0  0  0  0  0  0  0  0  0  0
   35.3351   -4.4151  -58.6192 C   0  0  0  0  0  0  0  0  0  0  0  0
   36.5047   -4.8966  -58.1343 N   0  0  0  0  0  0  0  0  0  0  0  0
   37.5023   -4.0052  -58.0049 C   0  0  0  0  0  0  0  0  0  0  0  0
   37.3833   -2.6640  -58.3250 C   0  0  0  0  0  0  0  0  0  0  0  0
   36.1578   -2.1758  -58.7932 C   0  0  0  0  0  0  0  0  0  0  0  0
   36.0179   -0.8418  -59.2401 N   0  0  0  0  0  0  0  0  0  0  0  0
   36.7171    0.2268  -58.5252 C   0  0  0  0  0  0  0  0  0  0  0  0
   37.8763    0.7368  -59.3704 C   0  0  0  0  0  0  0  0  0  0  0  0
   38.5894    1.8731  -58.6819 C   0  0  0  0  0  0  0  0  0  0  0  0
   39.6092    2.4159  -59.4091 N   0  0  0  0  0  0  0  0  0  0  0  0
   38.3204    2.2953  -57.5648 O   0  0  0  0  0  0  0  0  0  0  0  0
  1  2  1  0
  2  3  1  0
  3  4  1  0
  4  5  1  0
  5  6  1  0
  6  7  1  0
  7  8  1  0
  8  9  1  0
  9 10  1  0
 10 11  1  0
 11 12  1  0
 12 13  1  0
  7 14  1  0
 14 15  1  0
 15 16  2  0
 16 17  1  0
 17 18  2  0
 18 19  1  0
 19 20  2  0
 20 21  1  0
 21 22  1  0
 22 23  1  0
 23 24  1  0
 24 25  1  0
 24 26  2  0
 14  3  1  0
 20 15  1  0
 13  8  1  0
M  END
$$$$
