
     RDKit          3D

 23 25  0  0  0  0  0  0  0  0999 V2000
    5.2299   25.1019   -3.5740 N   0  0  0  0  0  0  0  0  0  0  0  0
    5.6532   24.3817   -2.4886 C   0  0  0  0  0  0  0  0  0  0  0  0
    6.1557   23.2709   -2.6249 O   0  0  0  0  0  0  0  0  0  0  0  0
    5.4208   24.9637   -1.1310 C   0  0  0  0  0  0  0  0  0  0  0  0
    5.3066   24.0217   -0.0844 C   0  0  0  0  0  0  0  0  0  0  0  0
    5.0744   24.4320    1.2268 C   0  0  0  0  0  0  0  0  0  0  0  0
    4.9581   25.7869    1.4963 C   0  0  0  0  0  0  0  0  0  0  0  0
    4.7462   26.1933    2.7551 F   0  0  0  0  0  0  0  0  0  0  0  0
    5.0826   26.7385    0.4845 C   0  0  0  0  0  0  0  0  0  0  0  0
    5.3229   26.3531   -0.8522 C   0  0  0  0  0  0  0  0  0  0  0  0
    5.4930   27.3360   -1.8683 N   0  0  0  0  0  0  0  0  0  0  0  0
    4.2733   28.1929   -1.9561 C   0  0  0  0  0  0  0  0  0  0  0  0
    4.3752   29.1813   -3.1049 C   0  0  0  0  0  0  0  0  0  0  0  0
    3.4064   29.4505   -3.8165 O   0  0  0  0  0  0  0  0  0  0  0  0
    5.6745   29.9403   -3.2112 C   0  0  0  0  0  0  0  0  0  0  0  0
    6.8491   28.9840   -3.0630 C   0  0  0  0  0  0  0  0  0  0  0  0
    6.7604   28.1255   -1.7623 C   0  0  0  0  0  0  0  0  0  0  0  0
    8.1103   27.5620   -1.5571 N   0  0  0  0  0  0  0  0  0  0  0  0
    8.5315   26.5443   -2.5263 C   0  0  0  0  0  0  0  0  0  0  0  0
   10.0378   26.2708   -2.4053 C   0  0  0  0  0  0  0  0  0  0  0  0
   10.4398   25.9023   -0.9811 C   0  0  0  0  0  0  0  0  0  0  0  0
    9.8842   26.9154    0.0167 C   0  0  0  0  0  0  0  0  0  0  0  0
    8.3810   27.1177   -0.1891 C   0  0  0  0  0  0  0  0  0  0  0  0
  1  2  1  0
  2  3  2  0
  2  4  1  0
  4  5  2  0
  5  6  1  0
  6  7  2  0
  7  8  1  0
  7  9  1  0
  9 10  2  0
 10 11  1  0
 11 12  1  0
 12 13  1  0
 13 14  2  0
 13 15  1  0
 15 16  1  0
 16 17  1  0
 17 18  1  0
 18 19  1  0
 19 20  1  0
 20 21  1  0
 21 22  1  0
 22 23  1  0
 10  4  1  0
 17 11  1  0
 23 18  1  0
M  END
$$$$
