
     RDKit          3D

 16 17  0  0  0  0  0  0  0  0999 V2000
    1.7337    8.8572   23.2439 N   0  0  0  0  0  0  0  0  0  0  0  0
    2.2953    7.7664   24.0291 C   0  0  0  0  0  0  0  0  0  0  0  0
    1.1989    7.0787   24.8395 C   0  0  0  0  0  0  0  0  0  0  0  0
    1.7814    5.9966   25.7396 C   0  0  0  0  0  0  0  0  0  0  0  0
    0.7139    5.1080   26.3478 C   0  0  0  0  0  0  0  0  0  0  0  0
    0.6652    3.9084   26.0607 O   0  0  0  0  0  0  0  0  0  0  0  0
   -0.2618    5.7323   27.3285 C   0  0  0  0  0  0  0  0  0  0  0  0
   -1.5676    6.0757   26.6906 C   0  0  0  0  0  0  0  0  0  0  0  0
   -2.4345    5.1898   26.0785 C   0  0  0  0  0  0  0  0  0  0  0  0
   -3.5194    5.8862   25.6238 N   0  0  0  0  0  0  0  0  0  0  0  0
   -3.3918    7.2189   25.9351 C   0  0  0  0  0  0  0  0  0  0  0  0
   -4.2541    8.2903   25.6723 C   0  0  0  0  0  0  0  0  0  0  0  0
   -3.8662    9.5583   26.1132 C   0  0  0  0  0  0  0  0  0  0  0  0
   -2.6645    9.7438   26.7908 C   0  0  0  0  0  0  0  0  0  0  0  0
   -1.8148    8.6610   27.0465 C   0  0  0  0  0  0  0  0  0  0  0  0
   -2.1794    7.3699   26.6099 C   0  0  0  0  0  0  0  0  0  0  0  0
  1  2  1  0
  2  3  1  0
  3  4  1  0
  4  5  1  0
  5  6  2  0
  5  7  1  0
  7  8  1  0
  8  9  2  0
  9 10  1  0
 10 11  1  0
 11 12  2  0
 12 13  1  0
 13 14  2  0
 14 15  1  0
 15 16  2  0
 16  8  1  0
 16 11  1  0
M  END
$$$$
