
     RDKit          3D

 16 17  0  0  0  0  0  0  0  0999 V2000
  -26.5611    0.9030   -0.8449 N   0  0  0  0  0  0  0  0  0  0  0  0
  -25.8701   -0.1039   -1.4632 C   0  0  0  0  0  0  0  0  0  0  0  0
  -25.1717    0.1069   -2.4441 O   0  0  0  0  0  0  0  0  0  0  0  0
  -26.0425   -1.4523   -0.8735 C   0  0  0  0  0  0  0  0  0  0  0  0
  -27.3659   -1.9331   -0.7993 C   0  0  0  0  0  0  0  0  0  0  0  0
  -27.6227   -3.2182   -0.3282 C   0  0  0  0  0  0  0  0  0  0  0  0
  -26.5598   -4.0206    0.0566 C   0  0  0  0  0  0  0  0  0  0  0  0
  -26.7996   -5.2597    0.5049 F   0  0  0  0  0  0  0  0  0  0  0  0
  -25.2493   -3.5578   -0.0150 C   0  0  0  0  0  0  0  0  0  0  0  0
  -24.9553   -2.2584   -0.4705 C   0  0  0  0  0  0  0  0  0  0  0  0
  -23.5985   -1.8980   -0.4690 N   0  0  0  0  0  0  0  0  0  0  0  0
  -23.2311   -0.5991    0.0947 C   0  0  0  0  0  0  0  0  0  0  0  0
  -21.7532   -0.6458    0.4932 C   0  0  0  0  0  0  0  0  0  0  0  0
  -20.8733   -1.3406   -0.5524 C   0  0  0  0  0  0  0  0  0  0  0  0
  -21.5917   -1.5072   -1.8872 C   0  0  0  0  0  0  0  0  0  0  0  0
  -22.9170   -2.2600   -1.7270 C   0  0  0  0  0  0  0  0  0  0  0  0
  1  2  1  0
  2  3  2  0
  2  4  1  0
  4  5  2  0
  5  6  1  0
  6  7  2  0
  7  8  1  0
  7  9  1  0
  9 10  2  0
 10 11  1  0
 11 12  1  0
 12 13  1  0
 13 14  1  0
 14 15  1  0
 15 16  1  0
 10  4  1  0
 16 11  1  0
M  END
$$$$
