
     RDKit          3D

 26 28  0  0  0  0  0  0  0  0999 V2000
    8.4680    7.4095    7.4423 N   0  0  0  0  0  0  0  0  0  0  0  0
    8.4382    8.4492    6.5526 C   0  0  0  0  0  0  0  0  0  0  0  0
    7.3959    8.9950    6.2130 O   0  0  0  0  0  0  0  0  0  0  0  0
    9.7502    8.8740    6.0120 C   0  0  0  0  0  0  0  0  0  0  0  0
   10.8064    9.1450    6.8908 C   0  0  0  0  0  0  0  0  0  0  0  0
   12.0339    9.5866    6.3866 C   0  0  0  0  0  0  0  0  0  0  0  0
   12.1996    9.7543    5.0096 C   0  0  0  0  0  0  0  0  0  0  0  0
   13.7140   10.3040    4.3933 Cl  0  0  0  0  0  0  0  0  0  0  0  0
   11.1553    9.4772    4.1284 C   0  0  0  0  0  0  0  0  0  0  0  0
    9.9242    9.0492    4.6342 C   0  0  0  0  0  0  0  0  0  0  0  0
    8.9320    8.6715    3.7674 O   0  0  0  0  0  0  0  0  0  0  0  0
    8.3360    9.7958    3.1056 C   0  0  0  0  0  0  0  0  0  0  0  0
    6.9160    9.5360    2.8932 N   0  0  0  0  0  0  0  0  0  0  0  0
    6.6560    8.4468    2.0113 C   0  0  0  0  0  0  0  0  0  0  0  0
    7.0360    8.4857    0.6762 C   0  0  0  0  0  0  0  0  0  0  0  0
    6.7621    7.3851   -0.1212 C   0  0  0  0  0  0  0  0  0  0  0  0
    6.1499    6.2671    0.3164 N   0  0  0  0  0  0  0  0  0  0  0  0
    5.7677    6.2622    1.6170 C   0  0  0  0  0  0  0  0  0  0  0  0
    5.9692    7.3145    2.5109 C   0  0  0  0  0  0  0  0  0  0  0  0
    5.5223    7.3379    3.8495 N   0  0  0  0  0  0  0  0  0  0  0  0
    4.1744    7.9083    3.9726 C   0  0  0  0  0  0  0  0  0  0  0  0
    3.9617    8.3023    5.4336 C   0  0  0  0  0  0  0  0  0  0  0  0
    4.1307    7.1161    6.3696 C   0  0  0  0  0  0  0  0  0  0  0  0
    5.4205    6.3763    6.0962 C   0  0  0  0  0  0  0  0  0  0  0  0
    6.0949    5.8980    7.0133 O   0  0  0  0  0  0  0  0  0  0  0  0
    5.7532    6.1169    4.6314 C   0  0  0  0  0  0  0  0  0  0  0  0
  1  2  1  0
  2  3  2  0
  2  4  1  0
  4  5  2  0
  5  6  1  0
  6  7  2  0
  7  8  1  0
  7  9  1  0
  9 10  2  0
 10 11  1  0
 11 12  1  0
 12 13  1  0
 13 14  1  0
 14 15  2  0
 15 16  1  0
 16 17  2  0
 17 18  1  0
 18 19  2  0
 19 20  1  0
 20 21  1  0
 21 22  1  0
 22 23  1  0
 23 24  1  0
 24 25  2  0
 24 26  1  0
 10  4  1  0
 19 14  1  0
 26 20  1  0
M  END
$$$$
