
     RDKit          3D

 16 17  0  0  0  0  0  0  0  0999 V2000
  -18.1275   -9.0478    7.9907 N   0  0  0  0  0  0  0  0  0  0  0  0
  -19.0317   -9.1797    9.1330 C   0  0  0  0  0  0  0  0  0  0  0  0
  -20.4445   -9.4981    8.6601 C   0  0  0  0  0  0  0  0  0  0  0  0
  -21.4064   -9.6525    9.8242 C   0  0  0  0  0  0  0  0  0  0  0  0
  -21.0807   -9.3918   10.9817 O   0  0  0  0  0  0  0  0  0  0  0  0
  -22.8025  -10.1219    9.4624 C   0  0  0  0  0  0  0  0  0  0  0  0
  -23.6959  -10.2677   10.6904 C   0  0  0  0  0  0  0  0  0  0  0  0
  -25.0707  -10.7310   10.3241 C   0  0  0  0  0  0  0  0  0  0  0  0
  -25.5198  -12.0373   10.3196 C   0  0  0  0  0  0  0  0  0  0  0  0
  -26.8295  -12.0409    9.9223 N   0  0  0  0  0  0  0  0  0  0  0  0
  -27.2512  -10.7589    9.6593 C   0  0  0  0  0  0  0  0  0  0  0  0
  -28.4979  -10.2901    9.2277 C   0  0  0  0  0  0  0  0  0  0  0  0
  -28.6438   -8.9120    9.0440 C   0  0  0  0  0  0  0  0  0  0  0  0
  -27.5846   -8.0404    9.2842 C   0  0  0  0  0  0  0  0  0  0  0  0
  -26.3448   -8.5265    9.7154 C   0  0  0  0  0  0  0  0  0  0  0  0
  -26.1701   -9.9127    9.9072 C   0  0  0  0  0  0  0  0  0  0  0  0
  1  2  1  0
  2  3  1  0
  3  4  1  0
  4  5  2  0
  4  6  1  0
  6  7  1  0
  7  8  1  0
  8  9  2  0
  9 10  1  0
 10 11  1  0
 11 12  2  0
 12 13  1  0
 13 14  2  0
 14 15  1  0
 15 16  2  0
 16  8  1  0
 16 11  1  0
M  END
$$$$
