
     RDKit          3D

 25 27  0  0  0  0  0  0  0  0999 V2000
   13.1786    5.0927  -32.0018 C   0  0  0  0  0  0  0  0  0  0  0  0
   12.8196    4.9423  -33.4082 N   0  0  0  0  0  0  0  0  0  0  0  0
   13.3617    3.6921  -33.9677 C   0  0  0  0  0  0  0  0  0  0  0  0
   14.8696    3.7057  -34.1550 C   0  0  0  0  0  0  0  0  0  0  0  0
   15.4290    4.7704  -34.8798 C   0  0  0  0  0  0  0  0  0  0  0  0
   16.7996    4.8551  -35.0983 C   0  0  0  0  0  0  0  0  0  0  0  0
   17.6543    3.8730  -34.5978 C   0  0  0  0  0  0  0  0  0  0  0  0
   19.0162    3.8920  -34.7993 O   0  0  0  0  0  0  0  0  0  0  0  0
   19.5726    4.9923  -35.5051 C   0  0  0  0  0  0  0  0  0  0  0  0
   17.1252    2.7737  -33.8523 C   0  0  0  0  0  0  0  0  0  0  0  0
   17.9735    1.7240  -33.3452 N   0  0  0  0  0  0  0  0  0  0  0  0
   18.4743    0.8926  -34.4605 C   0  0  0  0  0  0  0  0  0  0  0  0
   19.2534   -0.2904  -33.8879 C   0  0  0  0  0  0  0  0  0  0  0  0
   20.3452    0.1403  -32.9056 C   0  0  0  0  0  0  0  0  0  0  0  0
   20.4002    1.6522  -32.7108 C   0  0  0  0  0  0  0  0  0  0  0  0
   19.0183    2.2348  -32.4153 C   0  0  0  0  0  0  0  0  0  0  0  0
   15.7084    2.6812  -33.6416 C   0  0  0  0  0  0  0  0  0  0  0  0
   15.0862    1.6159  -32.9701 N   0  0  0  0  0  0  0  0  0  0  0  0
   14.7011    0.4805  -33.8176 C   0  0  0  0  0  0  0  0  0  0  0  0
   13.6125   -0.3292  -33.1198 C   0  0  0  0  0  0  0  0  0  0  0  0
   12.6982   -0.8665  -33.7500 O   0  0  0  0  0  0  0  0  0  0  0  0
   13.7714   -0.5623  -31.6300 C   0  0  0  0  0  0  0  0  0  0  0  0
   14.2547    0.6991  -30.9141 C   0  0  0  0  0  0  0  0  0  0  0  0
   15.4775    1.2945  -31.6130 C   0  0  0  0  0  0  0  0  0  0  0  0
   16.4935    0.3190  -31.6239 O   0  0  0  0  0  0  0  0  0  0  0  0
  1  2  1  0
  2  3  1  0
  3  4  1  0
  4  5  2  0
  5  6  1  0
  6  7  2  0
  7  8  1  0
  8  9  1  0
  7 10  1  0
 10 11  1  0
 11 12  1  0
 12 13  1  0
 13 14  1  0
 14 15  1  0
 15 16  1  0
 10 17  2  0
 17 18  1  0
 18 19  1  0
 19 20  1  0
 20 21  2  0
 20 22  1  0
 22 23  1  0
 23 24  1  0
 24 25  1  0
 17  4  1  0
 24 18  1  0
 16 11  1  0
M  END
$$$$
