
     RDKit          3D

 19 20  0  0  0  0  0  0  0  0999 V2000
  -59.7685   19.6656   52.3731 N   0  0  0  0  0  0  0  0  0  0  0  0
  -59.2614   19.1480   51.1076 C   0  0  0  0  0  0  0  0  0  0  0  0
  -59.2314   20.2269   50.0354 C   0  0  0  0  0  0  0  0  0  0  0  0
  -60.6235   20.6073   49.5752 C   0  0  0  0  0  0  0  0  0  0  0  0
  -61.3802   19.7871   49.0515 O   0  0  0  0  0  0  0  0  0  0  0  0
  -61.0521   22.0344   49.7650 C   0  0  0  0  0  0  0  0  0  0  0  0
  -61.4878   22.3415   51.1707 C   0  0  0  0  0  0  0  0  0  0  0  0
  -60.6944   22.8175   51.9857 O   0  0  0  0  0  0  0  0  0  0  0  0
  -62.9181   22.0255   51.5474 C   0  0  0  0  0  0  0  0  0  0  0  0
  -63.0101   20.7197   52.3225 C   0  0  0  0  0  0  0  0  0  0  0  0
  -64.4304   20.3332   52.5872 C   0  0  0  0  0  0  0  0  0  0  0  0
  -65.1770   20.6532   53.7040 C   0  0  0  0  0  0  0  0  0  0  0  0
  -66.4273   20.1169   53.5523 N   0  0  0  0  0  0  0  0  0  0  0  0
  -66.5190   19.4518   52.3521 C   0  0  0  0  0  0  0  0  0  0  0  0
  -67.5959   18.7629   51.7812 C   0  0  0  0  0  0  0  0  0  0  0  0
  -67.3968   18.1726   50.5296 C   0  0  0  0  0  0  0  0  0  0  0  0
  -66.1696   18.2686   49.8780 C   0  0  0  0  0  0  0  0  0  0  0  0
  -65.1034   18.9614   50.4629 C   0  0  0  0  0  0  0  0  0  0  0  0
  -65.2785   19.5664   51.7247 C   0  0  0  0  0  0  0  0  0  0  0  0
  1  2  1  0
  2  3  1  0
  3  4  1  0
  4  5  2  0
  4  6  1  0
  6  7  1  0
  7  8  2  0
  7  9  1  0
  9 10  1  0
 10 11  1  0
 11 12  2  0
 12 13  1  0
 13 14  1  0
 14 15  2  0
 15 16  1  0
 16 17  2  0
 17 18  1  0
 18 19  2  0
 19 11  1  0
 19 14  1  0
M  END
$$$$
