
     RDKit          3D

 29 32  0  0  0  0  0  0  0  0999 V2000
   -5.6436    5.0183  -18.3921 N   0  0  0  0  0  0  0  0  0  0  0  0
   -7.0020    5.1154  -18.4107 C   0  0  0  0  0  0  0  0  0  0  0  0
   -7.6420    5.2794  -19.4407 O   0  0  0  0  0  0  0  0  0  0  0  0
   -7.6826    4.9269  -17.1146 C   0  0  0  0  0  0  0  0  0  0  0  0
   -8.2967    3.6644  -16.9792 C   0  0  0  0  0  0  0  0  0  0  0  0
   -8.9440    3.3236  -15.8003 C   0  0  0  0  0  0  0  0  0  0  0  0
   -8.9792    4.2492  -14.7734 C   0  0  0  0  0  0  0  0  0  0  0  0
   -9.6072    3.9392  -13.6314 F   0  0  0  0  0  0  0  0  0  0  0  0
   -8.3851    5.5076  -14.9041 C   0  0  0  0  0  0  0  0  0  0  0  0
   -7.7138    5.9018  -16.0806 C   0  0  0  0  0  0  0  0  0  0  0  0
   -7.1417    7.1922  -16.2068 N   0  0  0  0  0  0  0  0  0  0  0  0
   -7.6536    7.9422  -17.3823 C   0  0  0  0  0  0  0  0  0  0  0  0
   -7.4552    9.4508  -17.2613 C   0  0  0  0  0  0  0  0  0  0  0  0
   -8.0673   10.0124  -15.9830 C   0  0  0  0  0  0  0  0  0  0  0  0
   -7.9723    9.0411  -14.8053 C   0  0  0  0  0  0  0  0  0  0  0  0
   -6.8742    7.9890  -14.9973 C   0  0  0  0  0  0  0  0  0  0  0  0
   -5.6215    8.6768  -15.0982 O   0  0  0  0  0  0  0  0  0  0  0  0
   -4.4924    7.8096  -14.9807 C   0  0  0  0  0  0  0  0  0  0  0  0
   -3.8879    7.5070  -16.3549 C   0  0  0  0  0  0  0  0  0  0  0  0
   -2.6956    6.6696  -16.2838 N   0  0  0  0  0  0  0  0  0  0  0  0
   -2.8468    5.3693  -15.8023 C   0  0  0  0  0  0  0  0  0  0  0  0
   -4.0102    4.6838  -15.9786 N   0  0  0  0  0  0  0  0  0  0  0  0
   -4.1059    3.4254  -15.4847 C   0  0  0  0  0  0  0  0  0  0  0  0
   -3.1771    2.7153  -14.8151 N   0  0  0  0  0  0  0  0  0  0  0  0
   -2.0541    3.4307  -14.6710 C   0  0  0  0  0  0  0  0  0  0  0  0
   -0.9051    3.0401  -14.0472 N   0  0  0  0  0  0  0  0  0  0  0  0
   -0.0222    4.0839  -14.1176 C   0  0  0  0  0  0  0  0  0  0  0  0
   -0.5344    5.1199  -14.7489 N   0  0  0  0  0  0  0  0  0  0  0  0
   -1.8054    4.7177  -15.1124 C   0  0  0  0  0  0  0  0  0  0  0  0
  1  2  1  0
  2  3  2  0
  2  4  1  0
  4  5  2  0
  5  6  1  0
  6  7  2  0
  7  8  1  0
  7  9  1  0
  9 10  2  0
 10 11  1  0
 11 12  1  0
 12 13  1  0
 13 14  1  0
 14 15  1  0
 15 16  1  0
 16 17  1  0
 17 18  1  0
 18 19  1  0
 19 20  1  0
 20 21  1  0
 21 22  2  0
 22 23  1  0
 23 24  2  0
 24 25  1  0
 25 26  1  0
 26 27  1  0
 27 28  2  0
 28 29  1  0
 10  4  1  0
 16 11  1  0
 29 21  1  0
 29 25  2  0
M  END
$$$$
