
     RDKit          3D

 19 20  0  0  0  0  0  0  0  0999 V2000
  -30.8860  -15.9802    6.4362 N   0  0  0  0  0  0  0  0  0  0  0  0
  -31.9564  -15.1970    5.8188 C   0  0  0  0  0  0  0  0  0  0  0  0
  -31.5258  -13.7790    5.4528 C   0  0  0  0  0  0  0  0  0  0  0  0
  -30.5792  -13.7262    4.2685 C   0  0  0  0  0  0  0  0  0  0  0  0
  -30.4370  -14.6322    3.4539 O   0  0  0  0  0  0  0  0  0  0  0  0
  -29.8714  -12.4463    4.0410 C   0  0  0  0  0  0  0  0  0  0  0  0
  -30.2768  -11.7118    2.9157 C   0  0  0  0  0  0  0  0  0  0  0  0
  -29.7506  -10.4445    2.6918 C   0  0  0  0  0  0  0  0  0  0  0  0
  -28.8338   -9.9219    3.5969 C   0  0  0  0  0  0  0  0  0  0  0  0
  -28.1961   -8.3431    3.3429 Cl  0  0  0  0  0  0  0  0  0  0  0  0
  -28.4145  -10.6661    4.7077 C   0  0  0  0  0  0  0  0  0  0  0  0
  -28.8980  -11.9632    4.9475 C   0  0  0  0  0  0  0  0  0  0  0  0
  -28.4335  -12.7446    6.0130 N   0  0  0  0  0  0  0  0  0  0  0  0
  -28.0216  -12.1218    7.2781 C   0  0  0  0  0  0  0  0  0  0  0  0
  -26.5089  -11.9253    7.3548 C   0  0  0  0  0  0  0  0  0  0  0  0
  -25.7677  -13.2324    7.1307 C   0  0  0  0  0  0  0  0  0  0  0  0
  -26.2070  -13.8447    5.8236 C   0  0  0  0  0  0  0  0  0  0  0  0
  -25.3871  -14.3043    5.0285 O   0  0  0  0  0  0  0  0  0  0  0  0
  -27.7094  -13.9818    5.6220 C   0  0  0  0  0  0  0  0  0  0  0  0
  1  2  1  0
  2  3  1  0
  3  4  1  0
  4  5  2  0
  4  6  1  0
  6  7  2  0
  7  8  1  0
  8  9  2  0
  9 10  1  0
  9 11  1  0
 11 12  2  0
 12 13  1  0
 13 14  1  0
 14 15  1  0
 15 16  1  0
 16 17  1  0
 17 18  2  0
 17 19  1  0
 12  6  1  0
 19 13  1  0
M  END
$$$$
