
     RDKit          3D

 19 20  0  0  0  0  0  0  0  0999 V2000
  -50.4201   20.8229   55.8603 N   0  0  0  0  0  0  0  0  0  0  0  0
  -51.0594   22.1378   55.8486 C   0  0  0  0  0  0  0  0  0  0  0  0
  -51.7094   22.4848   57.1808 C   0  0  0  0  0  0  0  0  0  0  0  0
  -53.0386   21.7835   57.3736 C   0  0  0  0  0  0  0  0  0  0  0  0
  -53.1965   20.9665   58.2841 O   0  0  0  0  0  0  0  0  0  0  0  0
  -54.1518   22.1127   56.3934 C   0  0  0  0  0  0  0  0  0  0  0  0
  -55.5293   21.9181   57.0128 C   0  0  0  0  0  0  0  0  0  0  0  0
  -55.7990   22.9146   58.1267 C   0  0  0  0  0  0  0  0  0  0  0  0
  -55.0655   23.8878   58.3148 O   0  0  0  0  0  0  0  0  0  0  0  0
  -57.0329   22.6697   58.9751 C   0  0  0  0  0  0  0  0  0  0  0  0
  -58.2832   22.9534   58.2135 C   0  0  0  0  0  0  0  0  0  0  0  0
  -58.8227   24.2005   57.9719 C   0  0  0  0  0  0  0  0  0  0  0  0
  -59.9623   24.0413   57.2324 N   0  0  0  0  0  0  0  0  0  0  0  0
  -60.1758   22.7128   56.9691 C   0  0  0  0  0  0  0  0  0  0  0  0
  -61.2010   22.0942   56.2439 C   0  0  0  0  0  0  0  0  0  0  0  0
  -61.1665   20.6986   56.1290 C   0  0  0  0  0  0  0  0  0  0  0  0
  -60.1464   19.9583   56.7179 C   0  0  0  0  0  0  0  0  0  0  0  0
  -59.1318   20.5928   57.4449 C   0  0  0  0  0  0  0  0  0  0  0  0
  -59.1422   22.0003   57.5752 C   0  0  0  0  0  0  0  0  0  0  0  0
  1  2  1  0
  2  3  1  0
  3  4  1  0
  4  5  2  0
  4  6  1  0
  6  7  1  0
  7  8  1  0
  8  9  2  0
  8 10  1  0
 10 11  1  0
 11 12  2  0
 12 13  1  0
 13 14  1  0
 14 15  2  0
 15 16  1  0
 16 17  2  0
 17 18  1  0
 18 19  2  0
 19 11  1  0
 19 14  1  0
M  END
$$$$
