
     RDKit          3D

 30 33  0  0  0  0  0  0  0  0999 V2000
   10.7131  -14.3278   -0.0395 N   0  0  0  0  0  0  0  0  0  0  0  0
   10.3973  -13.3331    0.9832 C   0  0  0  0  0  0  0  0  0  0  0  0
   10.1637  -11.9227    0.4229 C   0  0  0  0  0  0  0  0  0  0  0  0
   11.4372  -11.1059    0.1464 C   0  0  0  0  0  0  0  0  0  0  0  0
   12.3107  -11.6393   -0.9686 C   0  0  0  0  0  0  0  0  0  0  0  0
   11.8395  -11.5513   -2.2874 C   0  0  0  0  0  0  0  0  0  0  0  0
   12.5771  -12.1314   -3.3042 C   0  0  0  0  0  0  0  0  0  0  0  0
   13.7373  -12.7887   -3.1050 N   0  0  0  0  0  0  0  0  0  0  0  0
   14.1850  -12.8451   -1.8286 C   0  0  0  0  0  0  0  0  0  0  0  0
   13.5419  -12.2845   -0.7195 C   0  0  0  0  0  0  0  0  0  0  0  0
   14.0610  -12.3527    0.5779 N   0  0  0  0  0  0  0  0  0  0  0  0
   14.5073  -13.6795    1.0453 C   0  0  0  0  0  0  0  0  0  0  0  0
   14.7561  -13.6673    2.5498 C   0  0  0  0  0  0  0  0  0  0  0  0
   14.5429  -14.6583    3.2533 O   0  0  0  0  0  0  0  0  0  0  0  0
   15.4362  -12.4418    3.1267 C   0  0  0  0  0  0  0  0  0  0  0  0
   14.8485  -11.1693    2.5372 C   0  0  0  0  0  0  0  0  0  0  0  0
   14.8639  -11.1776    0.9974 C   0  0  0  0  0  0  0  0  0  0  0  0
   16.2785  -11.1896    0.3702 C   0  0  0  0  0  0  0  0  0  0  0  0
   17.1591  -10.0042    0.7931 C   0  0  0  0  0  0  0  0  0  0  0  0
   18.5534  -10.0620    0.1513 C   0  0  0  0  0  0  0  0  0  0  0  0
   19.3454  -11.0940    0.7994 N   0  0  0  0  0  0  0  0  0  0  0  0
   20.6246  -11.3015    0.2709 C   0  0  0  0  0  0  0  0  0  0  0  0
   21.3141  -10.2997   -0.3360 N   0  0  0  0  0  0  0  0  0  0  0  0
   22.5588  -10.5564   -0.8022 C   0  0  0  0  0  0  0  0  0  0  0  0
   23.2503  -11.7146   -0.7579 N   0  0  0  0  0  0  0  0  0  0  0  0
   22.5260  -12.6688   -0.1586 C   0  0  0  0  0  0  0  0  0  0  0  0
   22.8951  -13.9619    0.0714 N   0  0  0  0  0  0  0  0  0  0  0  0
   21.8475  -14.5860    0.6946 C   0  0  0  0  0  0  0  0  0  0  0  0
   20.8287  -13.7714    0.8825 N   0  0  0  0  0  0  0  0  0  0  0  0
   21.2494  -12.5611    0.3625 C   0  0  0  0  0  0  0  0  0  0  0  0
  1  2  1  0
  2  3  1  0
  3  4  1  0
  4  5  1  0
  5  6  2  0
  6  7  1  0
  7  8  2  0
  8  9  1  0
  9 10  2  0
 10 11  1  0
 11 12  1  0
 12 13  1  0
 13 14  2  0
 13 15  1  0
 15 16  1  0
 16 17  1  0
 17 18  1  0
 18 19  1  0
 19 20  1  0
 20 21  1  0
 21 22  1  0
 22 23  2  0
 23 24  1  0
 24 25  2  0
 25 26  1  0
 26 27  1  0
 27 28  1  0
 28 29  2  0
 29 30  1  0
 10  5  1  0
 17 11  1  0
 30 22  1  0
 30 26  2  0
M  END
$$$$
