
     RDKit          3D

 16 17  0  0  0  0  0  0  0  0999 V2000
  -21.9740   -7.1169  -42.7978 N   0  0  0  0  0  0  0  0  0  0  0  0
  -20.6183   -7.3470  -43.2854 C   0  0  0  0  0  0  0  0  0  0  0  0
  -20.1667   -8.8021  -43.1526 C   0  0  0  0  0  0  0  0  0  0  0  0
  -20.0242   -9.2566  -41.6977 C   0  0  0  0  0  0  0  0  0  0  0  0
  -19.4397  -10.6481  -41.5987 C   0  0  0  0  0  0  0  0  0  0  0  0
  -20.3039  -11.7528  -41.5904 C   0  0  0  0  0  0  0  0  0  0  0  0
  -19.7678  -13.0278  -41.5027 C   0  0  0  0  0  0  0  0  0  0  0  0
  -18.4477  -13.2816  -41.4237 N   0  0  0  0  0  0  0  0  0  0  0  0
  -17.6312  -12.2010  -41.4414 C   0  0  0  0  0  0  0  0  0  0  0  0
  -18.0523  -10.8677  -41.5378 C   0  0  0  0  0  0  0  0  0  0  0  0
  -17.1633   -9.7760  -41.5466 N   0  0  0  0  0  0  0  0  0  0  0  0
  -16.5261   -9.5587  -40.2436 C   0  0  0  0  0  0  0  0  0  0  0  0
  -15.9517   -8.1397  -40.2068 C   0  0  0  0  0  0  0  0  0  0  0  0
  -15.3622   -7.6929  -41.5483 C   0  0  0  0  0  0  0  0  0  0  0  0
  -15.0185   -8.8825  -42.4357 C   0  0  0  0  0  0  0  0  0  0  0  0
  -16.2414   -9.7697  -42.6983 C   0  0  0  0  0  0  0  0  0  0  0  0
  1  2  1  0
  2  3  1  0
  3  4  1  0
  4  5  1  0
  5  6  2  0
  6  7  1  0
  7  8  2  0
  8  9  1  0
  9 10  2  0
 10 11  1  0
 11 12  1  0
 12 13  1  0
 13 14  1  0
 14 15  1  0
 15 16  1  0
 10  5  1  0
 16 11  1  0
M  END
$$$$
