
     RDKit          3D

 19 20  0  0  0  0  0  0  0  0999 V2000
    7.6835  -66.1743    3.4445 N   0  0  0  0  0  0  0  0  0  0  0  0
    6.6131  -65.3910    2.8272 C   0  0  0  0  0  0  0  0  0  0  0  0
    7.0437  -63.9731    2.4612 C   0  0  0  0  0  0  0  0  0  0  0  0
    7.9904  -63.9203    1.2769 C   0  0  0  0  0  0  0  0  0  0  0  0
    8.1325  -64.8263    0.4623 O   0  0  0  0  0  0  0  0  0  0  0  0
    8.6981  -62.6404    1.0494 C   0  0  0  0  0  0  0  0  0  0  0  0
    8.2927  -61.9059   -0.0759 C   0  0  0  0  0  0  0  0  0  0  0  0
    8.8189  -60.6386   -0.2998 C   0  0  0  0  0  0  0  0  0  0  0  0
    9.7357  -60.1160    0.6053 C   0  0  0  0  0  0  0  0  0  0  0  0
   10.3734  -58.5372    0.3513 Cl  0  0  0  0  0  0  0  0  0  0  0  0
   10.1550  -60.8602    1.7160 C   0  0  0  0  0  0  0  0  0  0  0  0
    9.6715  -62.1573    1.9559 C   0  0  0  0  0  0  0  0  0  0  0  0
   10.1361  -62.9386    3.0214 N   0  0  0  0  0  0  0  0  0  0  0  0
   10.5479  -62.3158    4.2864 C   0  0  0  0  0  0  0  0  0  0  0  0
   12.0607  -62.1194    4.3632 C   0  0  0  0  0  0  0  0  0  0  0  0
   12.8018  -63.4264    4.1391 C   0  0  0  0  0  0  0  0  0  0  0  0
   12.3625  -64.0387    2.8320 C   0  0  0  0  0  0  0  0  0  0  0  0
   13.1825  -64.4984    2.0369 O   0  0  0  0  0  0  0  0  0  0  0  0
   10.8601  -64.1758    2.6304 C   0  0  0  0  0  0  0  0  0  0  0  0
  1  2  1  0
  2  3  1  0
  3  4  1  0
  4  5  2  0
  4  6  1  0
  6  7  2  0
  7  8  1  0
  8  9  2  0
  9 10  1  0
  9 11  1  0
 11 12  2  0
 12 13  1  0
 13 14  1  0
 14 15  1  0
 15 16  1  0
 16 17  1  0
 17 18  2  0
 17 19  1  0
 12  6  1  0
 19 13  1  0
M  END
$$$$
