
     RDKit          3D

 19 20  0  0  0  0  0  0  0  0999 V2000
   29.9005   12.8633   -7.3800 C   0  0  0  0  0  0  0  0  0  0  0  0
   29.6437   11.9507   -8.4606 N   0  0  0  0  0  0  0  0  0  0  0  0
   30.6858   11.3607   -9.1442 C   0  0  0  0  0  0  0  0  0  0  0  0
   31.8643   11.6726   -8.9974 O   0  0  0  0  0  0  0  0  0  0  0  0
   30.2346   10.2900  -10.1168 C   0  0  0  0  0  0  0  0  0  0  0  0
   30.0776    8.9330   -9.4667 C   0  0  0  0  0  0  0  0  0  0  0  0
   31.1232    8.0035   -9.6132 C   0  0  0  0  0  0  0  0  0  0  0  0
   31.0383    6.7272   -9.0552 C   0  0  0  0  0  0  0  0  0  0  0  0
   29.9015    6.3576   -8.3466 C   0  0  0  0  0  0  0  0  0  0  0  0
   29.6743    5.1379   -7.7686 O   0  0  0  0  0  0  0  0  0  0  0  0
   30.7118    4.1717   -7.8809 C   0  0  0  0  0  0  0  0  0  0  0  0
   28.8641    7.2832   -8.1849 C   0  0  0  0  0  0  0  0  0  0  0  0
   28.9369    8.5870   -8.7085 C   0  0  0  0  0  0  0  0  0  0  0  0
   27.8898    9.5277   -8.5391 N   0  0  0  0  0  0  0  0  0  0  0  0
   26.8506    9.3448   -9.5668 C   0  0  0  0  0  0  0  0  0  0  0  0
   26.0170   10.6263   -9.6522 C   0  0  0  0  0  0  0  0  0  0  0  0
   25.8016   11.2976   -8.2925 C   0  0  0  0  0  0  0  0  0  0  0  0
   25.9744   10.3121   -7.1444 C   0  0  0  0  0  0  0  0  0  0  0  0
   27.3490    9.6288   -7.1609 C   0  0  0  0  0  0  0  0  0  0  0  0
  1  2  1  0
  2  3  1  0
  3  4  2  0
  3  5  1  0
  5  6  1  0
  6  7  2  0
  7  8  1  0
  8  9  2  0
  9 10  1  0
 10 11  1  0
  9 12  1  0
 12 13  2  0
 13 14  1  0
 14 15  1  0
 15 16  1  0
 16 17  1  0
 17 18  1  0
 18 19  1  0
 13  6  1  0
 19 14  1  0
M  END
$$$$
