
     RDKit          3D

 26 28  0  0  0  0  0  0  0  0999 V2000
  -13.9498    8.8209   19.6427 N   0  0  0  0  0  0  0  0  0  0  0  0
  -15.0973    9.1703   18.8009 C   0  0  0  0  0  0  0  0  0  0  0  0
  -15.4271    8.0724   17.8192 C   0  0  0  0  0  0  0  0  0  0  0  0
  -16.1556    6.9685   18.3066 C   0  0  0  0  0  0  0  0  0  0  0  0
  -16.5353    5.9618   17.4377 C   0  0  0  0  0  0  0  0  0  0  0  0
  -16.2464    5.9707   16.1273 N   0  0  0  0  0  0  0  0  0  0  0  0
  -15.5399    7.0363   15.6770 C   0  0  0  0  0  0  0  0  0  0  0  0
  -15.0843    8.1187   16.4516 C   0  0  0  0  0  0  0  0  0  0  0  0
  -14.3278    9.1613   15.8971 N   0  0  0  0  0  0  0  0  0  0  0  0
  -14.6192    9.5341   14.4985 C   0  0  0  0  0  0  0  0  0  0  0  0
  -14.1953   10.9757   14.2500 C   0  0  0  0  0  0  0  0  0  0  0  0
  -14.7352   11.6812   13.3967 O   0  0  0  0  0  0  0  0  0  0  0  0
  -13.0593   11.4971   15.0975 C   0  0  0  0  0  0  0  0  0  0  0  0
  -12.1616   10.3296   15.4788 C   0  0  0  0  0  0  0  0  0  0  0  0
  -12.9076    9.2929   16.3490 C   0  0  0  0  0  0  0  0  0  0  0  0
  -12.1372    7.9452   16.3879 C   0  0  0  0  0  0  0  0  0  0  0  0
  -10.8851    8.0244   17.1263 N   0  0  0  0  0  0  0  0  0  0  0  0
   -9.6824    8.2885   16.5110 C   0  0  0  0  0  0  0  0  0  0  0  0
   -9.5696    8.4788   15.3057 O   0  0  0  0  0  0  0  0  0  0  0  0
   -8.4893    8.3830   17.3974 C   0  0  0  0  0  0  0  0  0  0  0  0
   -7.4126    9.1777   16.9794 C   0  0  0  0  0  0  0  0  0  0  0  0
   -6.2718    9.2957   17.7778 C   0  0  0  0  0  0  0  0  0  0  0  0
   -6.2029    8.6114   18.9897 C   0  0  0  0  0  0  0  0  0  0  0  0
   -4.7997    8.7547   19.9742 Cl  0  0  0  0  0  0  0  0  0  0  0  0
   -7.2614    7.8048   19.4072 C   0  0  0  0  0  0  0  0  0  0  0  0
   -8.4048    7.6858   18.6105 C   0  0  0  0  0  0  0  0  0  0  0  0
  1  2  1  0
  2  3  1  0
  3  4  2  0
  4  5  1  0
  5  6  2  0
  6  7  1  0
  7  8  2  0
  8  9  1  0
  9 10  1  0
 10 11  1  0
 11 12  2  0
 11 13  1  0
 13 14  1  0
 14 15  1  0
 15 16  1  0
 16 17  1  0
 17 18  1  0
 18 19  2  0
 18 20  1  0
 20 21  2  0
 21 22  1  0
 22 23  2  0
 23 24  1  0
 23 25  1  0
 25 26  2  0
  8  3  1  0
 15  9  1  0
 26 20  1  0
M  END
$$$$
