
     RDKit          3D

 25 27  0  0  0  0  0  0  0  0999 V2000
    3.0593    3.0818  -16.1791 N   0  0  0  0  0  0  0  0  0  0  0  0
    2.8857    1.6528  -16.4042 C   0  0  0  0  0  0  0  0  0  0  0  0
    3.7447    1.1387  -17.5618 C   0  0  0  0  0  0  0  0  0  0  0  0
    5.2609    1.2947  -17.3900 C   0  0  0  0  0  0  0  0  0  0  0  0
    5.8590    0.6502  -16.1336 C   0  0  0  0  0  0  0  0  0  0  0  0
    5.6692   -0.8681  -16.0207 C   0  0  0  0  0  0  0  0  0  0  0  0
    6.4084   -1.6617  -17.0749 C   0  0  0  0  0  0  0  0  0  0  0  0
    5.6943   -2.2232  -18.1419 C   0  0  0  0  0  0  0  0  0  0  0  0
    6.3821   -2.9374  -19.1084 C   0  0  0  0  0  0  0  0  0  0  0  0
    7.7147   -3.1294  -19.0866 N   0  0  0  0  0  0  0  0  0  0  0  0
    8.3899   -2.5816  -18.0459 C   0  0  0  0  0  0  0  0  0  0  0  0
    7.7993   -1.8498  -17.0187 C   0  0  0  0  0  0  0  0  0  0  0  0
    8.4422   -1.2905  -15.9505 O   0  0  0  0  0  0  0  0  0  0  0  0
    9.8529   -1.4722  -15.8170 C   0  0  0  0  0  0  0  0  0  0  0  0
   10.6314   -0.3978  -16.5858 C   0  0  0  0  0  0  0  0  0  0  0  0
   12.0624   -0.5572  -16.3619 N   0  0  0  0  0  0  0  0  0  0  0  0
   12.8673    0.3456  -17.0701 C   0  0  0  0  0  0  0  0  0  0  0  0
   12.5047    0.7928  -18.3017 N   0  0  0  0  0  0  0  0  0  0  0  0
   13.3273    1.6431  -18.9562 C   0  0  0  0  0  0  0  0  0  0  0  0
   14.5085    2.1486  -18.5459 N   0  0  0  0  0  0  0  0  0  0  0  0
   14.8171    1.6852  -17.3274 C   0  0  0  0  0  0  0  0  0  0  0  0
   15.9300    1.9773  -16.5944 N   0  0  0  0  0  0  0  0  0  0  0  0
   15.8349    1.2968  -15.4102 C   0  0  0  0  0  0  0  0  0  0  0  0
   14.7290    0.5853  -15.3383 N   0  0  0  0  0  0  0  0  0  0  0  0
   14.0860    0.8135  -16.5408 C   0  0  0  0  0  0  0  0  0  0  0  0
  1  2  1  0
  2  3  1  0
  3  4  1  0
  4  5  1  0
  5  6  1  0
  6  7  1  0
  7  8  2  0
  8  9  1  0
  9 10  2  0
 10 11  1  0
 11 12  2  0
 12 13  1  0
 13 14  1  0
 14 15  1  0
 15 16  1  0
 16 17  1  0
 17 18  2  0
 18 19  1  0
 19 20  2  0
 20 21  1  0
 21 22  1  0
 22 23  1  0
 23 24  2  0
 24 25  1  0
 12  7  1  0
 25 17  1  0
 25 21  2  0
M  END
$$$$
