
     RDKit          3D

 19 20  0  0  0  0  0  0  0  0999 V2000
   19.4431  -18.4998  -39.2337 N   0  0  0  0  0  0  0  0  0  0  0  0
   19.9501  -19.0174  -40.4992 C   0  0  0  0  0  0  0  0  0  0  0  0
   19.9802  -17.9385  -41.5714 C   0  0  0  0  0  0  0  0  0  0  0  0
   18.5881  -17.5580  -42.0316 C   0  0  0  0  0  0  0  0  0  0  0  0
   17.8313  -18.3782  -42.5553 O   0  0  0  0  0  0  0  0  0  0  0  0
   18.1594  -16.1310  -41.8418 C   0  0  0  0  0  0  0  0  0  0  0  0
   17.7237  -15.8239  -40.4360 C   0  0  0  0  0  0  0  0  0  0  0  0
   18.5172  -15.3479  -39.6211 O   0  0  0  0  0  0  0  0  0  0  0  0
   16.2935  -16.1398  -40.0593 C   0  0  0  0  0  0  0  0  0  0  0  0
   16.2015  -17.4457  -39.2843 C   0  0  0  0  0  0  0  0  0  0  0  0
   14.7812  -17.8321  -39.0195 C   0  0  0  0  0  0  0  0  0  0  0  0
   14.0345  -17.5122  -37.9028 C   0  0  0  0  0  0  0  0  0  0  0  0
   12.7843  -18.0485  -38.0544 N   0  0  0  0  0  0  0  0  0  0  0  0
   12.6925  -18.7136  -39.2547 C   0  0  0  0  0  0  0  0  0  0  0  0
   11.6156  -19.4025  -39.8256 C   0  0  0  0  0  0  0  0  0  0  0  0
   11.8148  -19.9928  -41.0772 C   0  0  0  0  0  0  0  0  0  0  0  0
   13.0420  -19.8967  -41.7288 C   0  0  0  0  0  0  0  0  0  0  0  0
   14.1082  -19.2040  -41.1439 C   0  0  0  0  0  0  0  0  0  0  0  0
   13.9331  -18.5990  -39.8820 C   0  0  0  0  0  0  0  0  0  0  0  0
  1  2  1  0
  2  3  1  0
  3  4  1  0
  4  5  2  0
  4  6  1  0
  6  7  1  0
  7  8  2  0
  7  9  1  0
  9 10  1  0
 10 11  1  0
 11 12  2  0
 12 13  1  0
 13 14  1  0
 14 15  2  0
 15 16  1  0
 16 17  2  0
 17 18  1  0
 18 19  2  0
 19 11  1  0
 19 14  1  0
M  END
$$$$
