
     RDKit          3D

 30 33  0  0  0  0  0  0  0  0999 V2000
  -24.6512   -2.5829   19.2777 N   0  0  0  0  0  0  0  0  0  0  0  0
  -23.0920   -2.8720   18.7314 S   0  0  0  0  0  0  0  0  0  0  0  0
  -22.1927   -2.6151   19.8291 O   0  0  0  0  0  0  0  0  0  0  0  0
  -23.1484   -4.1782   18.1107 O   0  0  0  0  0  0  0  0  0  0  0  0
  -22.8961   -1.6478   17.4641 C   0  0  0  0  0  0  0  0  0  0  0  0
  -23.0941   -2.1070   16.1481 C   0  0  0  0  0  0  0  0  0  0  0  0
  -22.9577   -1.2214   15.0990 C   0  0  0  0  0  0  0  0  0  0  0  0
  -22.6441    0.0710   15.2689 N   0  0  0  0  0  0  0  0  0  0  0  0
  -22.4565    0.4823   16.5462 C   0  0  0  0  0  0  0  0  0  0  0  0
  -22.5450   -0.3106   17.7026 C   0  0  0  0  0  0  0  0  0  0  0  0
  -22.3176    0.3244   18.9224 N   0  0  0  0  0  0  0  0  0  0  0  0
  -23.4945    0.5663   19.7691 C   0  0  0  0  0  0  0  0  0  0  0  0
  -23.3909   -0.1850   21.0828 C   0  0  0  0  0  0  0  0  0  0  0  0
  -24.3407   -0.8286   21.5387 O   0  0  0  0  0  0  0  0  0  0  0  0
  -22.0749   -0.0967   21.8163 C   0  0  0  0  0  0  0  0  0  0  0  0
  -21.0418    0.6877   21.0144 C   0  0  0  0  0  0  0  0  0  0  0  0
  -20.9705    0.2311   19.5419 C   0  0  0  0  0  0  0  0  0  0  0  0
  -19.9643    1.0924   18.7411 C   0  0  0  0  0  0  0  0  0  0  0  0
  -18.5257    0.9783   19.2584 C   0  0  0  0  0  0  0  0  0  0  0  0
  -17.5329    1.6901   18.4487 N   0  0  0  0  0  0  0  0  0  0  0  0
  -17.3544    1.1866   17.0833 C   0  0  0  0  0  0  0  0  0  0  0  0
  -16.9625   -0.2553   17.0633 C   0  0  0  0  0  0  0  0  0  0  0  0
  -17.7393   -1.3080   16.6108 C   0  0  0  0  0  0  0  0  0  0  0  0
  -17.0222   -2.4652   16.7492 N   0  0  0  0  0  0  0  0  0  0  0  0
  -15.7808   -2.1971   17.2754 C   0  0  0  0  0  0  0  0  0  0  0  0
  -14.7233   -3.0630   17.5798 C   0  0  0  0  0  0  0  0  0  0  0  0
  -13.5612   -2.5027   18.1185 C   0  0  0  0  0  0  0  0  0  0  0  0
  -13.4642   -1.1319   18.3449 C   0  0  0  0  0  0  0  0  0  0  0  0
  -14.5313   -0.2814   18.0344 C   0  0  0  0  0  0  0  0  0  0  0  0
  -15.7139   -0.8195   17.4861 C   0  0  0  0  0  0  0  0  0  0  0  0
  1  2  1  0
  2  3  2  0
  2  4  2  0
  2  5  1  0
  5  6  2  0
  6  7  1  0
  7  8  2  0
  8  9  1  0
  9 10  2  0
 10 11  1  0
 11 12  1  0
 12 13  1  0
 13 14  2  0
 13 15  1  0
 15 16  1  0
 16 17  1  0
 17 18  1  0
 18 19  1  0
 19 20  1  0
 20 21  1  0
 21 22  1  0
 22 23  2  0
 23 24  1  0
 24 25  1  0
 25 26  2  0
 26 27  1  0
 27 28  2  0
 28 29  1  0
 29 30  2  0
 10  5  1  0
 17 11  1  0
 30 22  1  0
 30 25  1  0
M  END
$$$$
