
     RDKit          3D

 23 25  0  0  0  0  0  0  0  0999 V2000
  -44.9694   41.3717   10.4018 N   0  0  0  0  0  0  0  0  0  0  0  0
  -43.7824   41.4359   11.0873 C   0  0  0  0  0  0  0  0  0  0  0  0
  -42.7359   41.6244   10.4803 O   0  0  0  0  0  0  0  0  0  0  0  0
  -43.8751   41.3210   12.5748 C   0  0  0  0  0  0  0  0  0  0  0  0
  -44.7879   40.3655   13.0758 C   0  0  0  0  0  0  0  0  0  0  0  0
  -44.9271   40.1646   14.4458 C   0  0  0  0  0  0  0  0  0  0  0  0
  -44.1517   40.9131   15.3142 C   0  0  0  0  0  0  0  0  0  0  0  0
  -44.2812   40.7334   16.6358 F   0  0  0  0  0  0  0  0  0  0  0  0
  -43.2367   41.8511   14.8395 C   0  0  0  0  0  0  0  0  0  0  0  0
  -43.0626   42.0828   13.4588 C   0  0  0  0  0  0  0  0  0  0  0  0
  -42.1418   43.0515   13.0059 N   0  0  0  0  0  0  0  0  0  0  0  0
  -42.7346   44.3516   12.6820 C   0  0  0  0  0  0  0  0  0  0  0  0
  -43.3899   44.2484   11.4344 O   0  0  0  0  0  0  0  0  0  0  0  0
  -41.6861   45.4569   12.5430 C   0  0  0  0  0  0  0  0  0  0  0  0
  -40.8445   45.6167   13.8031 C   0  0  0  0  0  0  0  0  0  0  0  0
  -40.7286   44.2999   14.5704 C   0  0  0  0  0  0  0  0  0  0  0  0
  -40.7850   43.0663   13.6242 C   0  0  0  0  0  0  0  0  0  0  0  0
  -39.6259   43.0286   12.6999 N   0  0  0  0  0  0  0  0  0  0  0  0
  -39.7519   41.9175   11.7351 C   0  0  0  0  0  0  0  0  0  0  0  0
  -38.5193   41.0156   11.6123 C   0  0  0  0  0  0  0  0  0  0  0  0
  -37.2387   41.8111   11.4170 C   0  0  0  0  0  0  0  0  0  0  0  0
  -37.1969   43.0584   12.2981 C   0  0  0  0  0  0  0  0  0  0  0  0
  -38.3134   43.0847   13.3440 C   0  0  0  0  0  0  0  0  0  0  0  0
  1  2  1  0
  2  3  2  0
  2  4  1  0
  4  5  2  0
  5  6  1  0
  6  7  2  0
  7  8  1  0
  7  9  1  0
  9 10  2  0
 10 11  1  0
 11 12  1  0
 12 13  1  0
 12 14  1  0
 14 15  1  0
 15 16  1  0
 16 17  1  0
 17 18  1  0
 18 19  1  0
 19 20  1  0
 20 21  1  0
 21 22  1  0
 22 23  1  0
 10  4  1  0
 17 11  1  0
 23 18  1  0
M  END
$$$$
