
     RDKit          3D

 26 28  0  0  0  0  0  0  0  0999 V2000
  -12.9604  -58.2402  -14.3068 C   0  0  0  0  0  0  0  0  0  0  0  0
  -12.8730  -59.4238  -15.1474 N   0  0  0  0  0  0  0  0  0  0  0  0
  -13.6420  -59.2926  -16.3998 C   0  0  0  0  0  0  0  0  0  0  0  0
  -12.9664  -58.3793  -17.4536 C   0  0  0  0  0  0  0  0  0  0  0  0
  -13.8007  -58.2848  -18.7571 C   0  0  0  0  0  0  0  0  0  0  0  0
  -14.1985  -59.5653  -19.4707 C   0  0  0  0  0  0  0  0  0  0  0  0
  -13.2434  -60.5868  -19.6277 C   0  0  0  0  0  0  0  0  0  0  0  0
  -13.5857  -61.7621  -20.2737 C   0  0  0  0  0  0  0  0  0  0  0  0
  -14.8003  -61.9936  -20.7936 N   0  0  0  0  0  0  0  0  0  0  0  0
  -15.6995  -60.9891  -20.6693 C   0  0  0  0  0  0  0  0  0  0  0  0
  -15.4830  -59.7508  -20.0355 C   0  0  0  0  0  0  0  0  0  0  0  0
  -16.4741  -58.7290  -19.9904 N   0  0  0  0  0  0  0  0  0  0  0  0
  -16.4204  -57.8714  -21.1887 C   0  0  0  0  0  0  0  0  0  0  0  0
  -15.3716  -56.9351  -21.0196 O   0  0  0  0  0  0  0  0  0  0  0  0
  -17.7029  -57.0539  -21.3694 C   0  0  0  0  0  0  0  0  0  0  0  0
  -18.9283  -57.9413  -21.5423 C   0  0  0  0  0  0  0  0  0  0  0  0
  -18.7201  -59.2957  -20.8734 C   0  0  0  0  0  0  0  0  0  0  0  0
  -17.8475  -59.1875  -19.5862 C   0  0  0  0  0  0  0  0  0  0  0  0
  -18.5464  -58.3748  -18.5526 N   0  0  0  0  0  0  0  0  0  0  0  0
  -17.7174  -58.1772  -17.3512 C   0  0  0  0  0  0  0  0  0  0  0  0
  -17.5599  -59.4309  -16.4860 C   0  0  0  0  0  0  0  0  0  0  0  0
  -18.9142  -60.0165  -16.1015 C   0  0  0  0  0  0  0  0  0  0  0  0
  -19.8129  -60.1761  -17.3225 C   0  0  0  0  0  0  0  0  0  0  0  0
  -19.8655  -58.8829  -18.1397 C   0  0  0  0  0  0  0  0  0  0  0  0
  -11.6156  -58.8358  -17.6542 O   0  0  0  0  0  0  0  0  0  0  0  0
  -10.7770  -57.8832  -18.2951 C   0  0  0  0  0  0  0  0  0  0  0  0
  1  2  1  0
  2  3  1  0
  3  4  1  0
  4  5  1  0
  5  6  1  0
  6  7  2  0
  7  8  1  0
  8  9  2  0
  9 10  1  0
 10 11  2  0
 11 12  1  0
 12 13  1  0
 13 14  1  0
 13 15  1  0
 15 16  1  0
 16 17  1  0
 17 18  1  0
 18 19  1  0
 19 20  1  0
 20 21  1  0
 21 22  1  0
 22 23  1  0
 23 24  1  0
  4 25  1  0
 25 26  1  0
 11  6  1  0
 18 12  1  0
 24 19  1  0
M  END
$$$$
