
     RDKit          3D

 26 28  0  0  0  0  0  0  0  0999 V2000
  -36.3292   -5.8616  -39.8667 N   0  0  0  0  0  0  0  0  0  0  0  0
  -35.8757   -6.6295  -38.7065 C   0  0  0  0  0  0  0  0  0  0  0  0
  -35.9735   -5.8140  -37.4237 C   0  0  0  0  0  0  0  0  0  0  0  0
  -37.4124   -5.6086  -36.9981 C   0  0  0  0  0  0  0  0  0  0  0  0
  -38.1818   -6.5650  -36.8868 O   0  0  0  0  0  0  0  0  0  0  0  0
  -37.8289   -4.1935  -36.6330 C   0  0  0  0  0  0  0  0  0  0  0  0
  -39.3011   -3.9108  -36.9552 C   0  0  0  0  0  0  0  0  0  0  0  0
  -39.6782   -3.9794  -38.4267 C   0  0  0  0  0  0  0  0  0  0  0  0
  -38.8289   -3.3625  -39.3668 C   0  0  0  0  0  0  0  0  0  0  0  0
  -39.0683   -3.5231  -40.7200 C   0  0  0  0  0  0  0  0  0  0  0  0
  -40.0890   -4.2434  -41.2055 N   0  0  0  0  0  0  0  0  0  0  0  0
  -40.9316   -4.7741  -40.2854 C   0  0  0  0  0  0  0  0  0  0  0  0
  -40.8258   -4.6606  -38.8898 C   0  0  0  0  0  0  0  0  0  0  0  0
  -41.8075   -5.1789  -38.0632 N   0  0  0  0  0  0  0  0  0  0  0  0
  -42.4595   -4.3545  -37.0377 C   0  0  0  0  0  0  0  0  0  0  0  0
  -42.4071   -5.0362  -35.6754 C   0  0  0  0  0  0  0  0  0  0  0  0
  -42.3602   -4.3821  -34.6298 O   0  0  0  0  0  0  0  0  0  0  0  0
  -42.5516   -6.5439  -35.6420 C   0  0  0  0  0  0  0  0  0  0  0  0
  -41.8222   -7.1918  -36.8165 C   0  0  0  0  0  0  0  0  0  0  0  0
  -42.2700   -6.5728  -38.1717 C   0  0  0  0  0  0  0  0  0  0  0  0
  -43.7148   -6.8299  -38.4106 N   0  0  0  0  0  0  0  0  0  0  0  0
  -44.1946   -6.1029  -39.5993 C   0  0  0  0  0  0  0  0  0  0  0  0
  -45.7042   -6.2629  -39.7870 C   0  0  0  0  0  0  0  0  0  0  0  0
  -46.0884   -7.7303  -39.9043 C   0  0  0  0  0  0  0  0  0  0  0  0
  -45.5201   -8.5139  -38.7307 C   0  0  0  0  0  0  0  0  0  0  0  0
  -44.0183   -8.2665  -38.5582 C   0  0  0  0  0  0  0  0  0  0  0  0
  1  2  1  0
  2  3  1  0
  3  4  1  0
  4  5  2  0
  4  6  1  0
  6  7  1  0
  7  8  1  0
  8  9  2  0
  9 10  1  0
 10 11  2  0
 11 12  1  0
 12 13  2  0
 13 14  1  0
 14 15  1  0
 15 16  1  0
 16 17  2  0
 16 18  1  0
 18 19  1  0
 19 20  1  0
 20 21  1  0
 21 22  1  0
 22 23  1  0
 23 24  1  0
 24 25  1  0
 25 26  1  0
 13  8  1  0
 20 14  1  0
 26 21  1  0
M  END
$$$$
