
     RDKit          3D

 29 32  0  0  0  0  0  0  0  0999 V2000
   24.0950   -3.0770  -31.7210 N   0  0  0  0  0  0  0  0  0  0  0  0
   24.7880   -3.1514  -30.4232 C   0  0  0  0  0  0  0  0  0  0  0  0
   25.5789   -1.8669  -30.1851 C   0  0  0  0  0  0  0  0  0  0  0  0
   25.8838   -1.0798  -31.0805 O   0  0  0  0  0  0  0  0  0  0  0  0
   25.9358   -1.5351  -28.7887 C   0  0  0  0  0  0  0  0  0  0  0  0
   25.5027   -0.2845  -28.3325 C   0  0  0  0  0  0  0  0  0  0  0  0
   25.7086    0.0287  -27.0074 C   0  0  0  0  0  0  0  0  0  0  0  0
   26.2993   -0.8105  -26.1379 N   0  0  0  0  0  0  0  0  0  0  0  0
   26.7282   -2.0032  -26.6219 C   0  0  0  0  0  0  0  0  0  0  0  0
   26.6103   -2.4368  -27.9475 C   0  0  0  0  0  0  0  0  0  0  0  0
   27.1577   -3.6439  -28.4094 N   0  0  0  0  0  0  0  0  0  0  0  0
   27.1951   -4.7700  -27.4470 C   0  0  0  0  0  0  0  0  0  0  0  0
   27.5281   -6.0844  -28.1363 C   0  0  0  0  0  0  0  0  0  0  0  0
   27.0315   -7.1518  -27.7726 O   0  0  0  0  0  0  0  0  0  0  0  0
   28.6246   -6.0485  -29.1729 C   0  0  0  0  0  0  0  0  0  0  0  0
   28.4289   -4.8630  -30.1052 C   0  0  0  0  0  0  0  0  0  0  0  0
   28.3085   -3.5233  -29.3499 C   0  0  0  0  0  0  0  0  0  0  0  0
   29.6346   -3.1532  -28.6506 C   0  0  0  0  0  0  0  0  0  0  0  0
   29.8746   -1.6400  -28.6026 C   0  0  0  0  0  0  0  0  0  0  0  0
   31.1151   -1.3218  -27.8703 N   0  0  0  0  0  0  0  0  0  0  0  0
   32.2574   -1.5514  -28.5588 C   0  0  0  0  0  0  0  0  0  0  0  0
   32.7573   -0.8614  -29.5509 N   0  0  0  0  0  0  0  0  0  0  0  0
   33.9321   -1.4998  -29.8740 C   0  0  0  0  0  0  0  0  0  0  0  0
   34.8725   -1.1993  -30.8703 C   0  0  0  0  0  0  0  0  0  0  0  0
   36.0040   -2.0162  -30.9940 C   0  0  0  0  0  0  0  0  0  0  0  0
   36.1962   -3.1083  -30.1426 C   0  0  0  0  0  0  0  0  0  0  0  0
   35.2700   -3.4239  -29.1411 C   0  0  0  0  0  0  0  0  0  0  0  0
   34.1511   -2.5950  -29.0424 C   0  0  0  0  0  0  0  0  0  0  0  0
   33.0686   -2.5926  -28.2026 N   0  0  0  0  0  0  0  0  0  0  0  0
  1  2  1  0
  2  3  1  0
  3  4  2  0
  3  5  1  0
  5  6  2  0
  6  7  1  0
  7  8  2  0
  8  9  1  0
  9 10  2  0
 10 11  1  0
 11 12  1  0
 12 13  1  0
 13 14  2  0
 13 15  1  0
 15 16  1  0
 16 17  1  0
 17 18  1  0
 18 19  1  0
 19 20  1  0
 20 21  1  0
 21 22  2  0
 22 23  1  0
 23 24  2  0
 24 25  1  0
 25 26  2  0
 26 27  1  0
 27 28  2  0
 28 29  1  0
 10  5  1  0
 17 11  1  0
 29 21  1  0
 28 23  1  0
M  END
$$$$
