
     RDKit          3D

 29 32  0  0  0  0  0  0  0  0999 V2000
   10.5898   12.3411  -30.6959 N   0  0  0  0  0  0  0  0  0  0  0  0
   10.2889   12.2586  -32.1270 C   0  0  0  0  0  0  0  0  0  0  0  0
   10.3037   13.6226  -32.7852 C   0  0  0  0  0  0  0  0  0  0  0  0
    9.2393   14.5032  -32.4854 C   0  0  0  0  0  0  0  0  0  0  0  0
    9.1466   15.7560  -33.0854 C   0  0  0  0  0  0  0  0  0  0  0  0
   10.1231   16.1365  -33.9976 C   0  0  0  0  0  0  0  0  0  0  0  0
   10.0339   17.7145  -34.7944 S   0  0  0  0  0  0  0  0  0  0  0  0
   11.2273   18.5782  -33.9797 N   0  0  0  0  0  0  0  0  0  0  0  0
    8.7870   18.3467  -34.4282 O   0  0  0  0  0  0  0  0  0  0  0  0
   10.4521   17.5541  -36.1659 O   0  0  0  0  0  0  0  0  0  0  0  0
   11.1781   15.2766  -34.3190 C   0  0  0  0  0  0  0  0  0  0  0  0
   11.2977   14.0117  -33.7145 C   0  0  0  0  0  0  0  0  0  0  0  0
   12.3751   13.1769  -34.0269 N   0  0  0  0  0  0  0  0  0  0  0  0
   12.8008   13.1217  -35.4306 C   0  0  0  0  0  0  0  0  0  0  0  0
   13.3832   11.7372  -35.7218 C   0  0  0  0  0  0  0  0  0  0  0  0
   14.2243   11.1859  -34.5699 C   0  0  0  0  0  0  0  0  0  0  0  0
   14.6766   12.2961  -33.6298 C   0  0  0  0  0  0  0  0  0  0  0  0
   13.4716   13.0466  -33.0145 C   0  0  0  0  0  0  0  0  0  0  0  0
   13.9176   14.4020  -32.3982 C   0  0  0  0  0  0  0  0  0  0  0  0
   14.8587   14.2354  -31.2905 N   0  0  0  0  0  0  0  0  0  0  0  0
   16.1731   14.4261  -31.5030 C   0  0  0  0  0  0  0  0  0  0  0  0
   16.7762   14.8642  -32.5814 N   0  0  0  0  0  0  0  0  0  0  0  0
   18.1167   14.8629  -32.2823 C   0  0  0  0  0  0  0  0  0  0  0  0
   19.2142   15.2326  -33.0727 C   0  0  0  0  0  0  0  0  0  0  0  0
   20.4993   15.1374  -32.5231 C   0  0  0  0  0  0  0  0  0  0  0  0
   20.6869   14.6841  -31.2145 C   0  0  0  0  0  0  0  0  0  0  0  0
   19.6035   14.3107  -30.4103 C   0  0  0  0  0  0  0  0  0  0  0  0
   18.3353   14.4150  -30.9847 C   0  0  0  0  0  0  0  0  0  0  0  0
   17.0770   14.1470  -30.5121 N   0  0  0  0  0  0  0  0  0  0  0  0
  1  2  1  0
  2  3  1  0
  3  4  2  0
  4  5  1  0
  5  6  2  0
  6  7  1  0
  7  8  1  0
  7  9  2  0
  7 10  2  0
  6 11  1  0
 11 12  2  0
 12 13  1  0
 13 14  1  0
 14 15  1  0
 15 16  1  0
 16 17  1  0
 17 18  1  0
 18 19  1  0
 19 20  1  0
 20 21  1  0
 21 22  2  0
 22 23  1  0
 23 24  2  0
 24 25  1  0
 25 26  2  0
 26 27  1  0
 27 28  2  0
 28 29  1  0
 12  3  1  0
 18 13  1  0
 29 21  1  0
 28 23  1  0
M  END
$$$$
