
     RDKit          3D

 19 20  0  0  0  0  0  0  0  0999 V2000
   11.4677   -6.5639  -11.3918 N   0  0  0  0  0  0  0  0  0  0  0  0
   11.9748   -7.0815  -12.6573 C   0  0  0  0  0  0  0  0  0  0  0  0
   12.0048   -6.0026  -13.7295 C   0  0  0  0  0  0  0  0  0  0  0  0
   10.6128   -5.6221  -14.1897 C   0  0  0  0  0  0  0  0  0  0  0  0
    9.8560   -6.4423  -14.7134 O   0  0  0  0  0  0  0  0  0  0  0  0
   10.1841   -4.1951  -13.9999 C   0  0  0  0  0  0  0  0  0  0  0  0
    9.7484   -3.8880  -12.5941 C   0  0  0  0  0  0  0  0  0  0  0  0
   10.5419   -3.4119  -11.7792 O   0  0  0  0  0  0  0  0  0  0  0  0
    8.3182   -4.2039  -12.2175 C   0  0  0  0  0  0  0  0  0  0  0  0
    8.2261   -5.5097  -11.4424 C   0  0  0  0  0  0  0  0  0  0  0  0
    6.8059   -5.8962  -11.1776 C   0  0  0  0  0  0  0  0  0  0  0  0
    6.0592   -5.5763  -10.0609 C   0  0  0  0  0  0  0  0  0  0  0  0
    4.8089   -6.1126  -10.2126 N   0  0  0  0  0  0  0  0  0  0  0  0
    4.7172   -6.7776  -11.4128 C   0  0  0  0  0  0  0  0  0  0  0  0
    3.6403   -7.4666  -11.9837 C   0  0  0  0  0  0  0  0  0  0  0  0
    3.8395   -8.0569  -13.2353 C   0  0  0  0  0  0  0  0  0  0  0  0
    5.0667   -7.9608  -13.8869 C   0  0  0  0  0  0  0  0  0  0  0  0
    6.1329   -7.2680  -13.3020 C   0  0  0  0  0  0  0  0  0  0  0  0
    5.9577   -6.6631  -12.0402 C   0  0  0  0  0  0  0  0  0  0  0  0
  1  2  1  0
  2  3  1  0
  3  4  1  0
  4  5  2  0
  4  6  1  0
  6  7  1  0
  7  8  2  0
  7  9  1  0
  9 10  1  0
 10 11  1  0
 11 12  2  0
 12 13  1  0
 13 14  1  0
 14 15  2  0
 15 16  1  0
 16 17  2  0
 17 18  1  0
 18 19  2  0
 19 11  1  0
 19 14  1  0
M  END
$$$$
