
     RDKit          3D

 18 19  0  0  0  0  0  0  0  0999 V2000
   -8.3810   -1.6655   -1.2743 N   0  0  0  0  0  0  0  0  0  0  0  0
   -9.2017   -2.7077   -1.8805 C   0  0  0  0  0  0  0  0  0  0  0  0
   -9.0990   -3.9992   -1.0676 C   0  0  0  0  0  0  0  0  0  0  0  0
   -9.8459   -5.1625   -1.7192 C   0  0  0  0  0  0  0  0  0  0  0  0
  -11.3608   -5.0499   -1.6475 C   0  0  0  0  0  0  0  0  0  0  0  0
  -11.9295   -4.1407   -1.0446 O   0  0  0  0  0  0  0  0  0  0  0  0
  -12.1359   -6.1482   -2.3629 C   0  0  0  0  0  0  0  0  0  0  0  0
  -13.6494   -5.9813   -2.2447 C   0  0  0  0  0  0  0  0  0  0  0  0
  -14.1779   -4.8409   -3.1198 C   0  0  0  0  0  0  0  0  0  0  0  0
  -15.6062   -4.5523   -2.8166 C   0  0  0  0  0  0  0  0  0  0  0  0
  -16.6610   -5.0294   -3.4436 N   0  0  0  0  0  0  0  0  0  0  0  0
  -17.7468   -4.4836   -2.8022 C   0  0  0  0  0  0  0  0  0  0  0  0
  -19.1160   -4.6507   -3.0547 C   0  0  0  0  0  0  0  0  0  0  0  0
  -20.0366   -3.9746   -2.2434 C   0  0  0  0  0  0  0  0  0  0  0  0
  -19.6024   -3.1496   -1.2025 C   0  0  0  0  0  0  0  0  0  0  0  0
  -18.2397   -2.9705   -0.9353 C   0  0  0  0  0  0  0  0  0  0  0  0
  -17.3451   -3.6558   -1.7598 C   0  0  0  0  0  0  0  0  0  0  0  0
  -15.9762   -3.7164   -1.7905 N   0  0  0  0  0  0  0  0  0  0  0  0
  1  2  1  0
  2  3  1  0
  3  4  1  0
  4  5  1  0
  5  6  2  0
  5  7  1  0
  7  8  1  0
  8  9  1  0
  9 10  1  0
 10 11  2  0
 11 12  1  0
 12 13  2  0
 13 14  1  0
 14 15  2  0
 15 16  1  0
 16 17  2  0
 17 18  1  0
 18 10  1  0
 17 12  1  0
M  END
$$$$
