
     RDKit          3D

 27 29  0  0  0  0  0  0  0  0999 V2000
  -26.1171   -6.5853  -26.0556 C   0  0  0  0  0  0  0  0  0  0  0  0
  -25.1986   -6.6201  -24.9250 N   0  0  0  0  0  0  0  0  0  0  0  0
  -25.0300   -5.2984  -24.2955 C   0  0  0  0  0  0  0  0  0  0  0  0
  -24.2314   -4.2992  -25.1471 C   0  0  0  0  0  0  0  0  0  0  0  0
  -24.0478   -2.9688  -24.4354 C   0  0  0  0  0  0  0  0  0  0  0  0
  -24.8704   -1.8984  -24.8419 C   0  0  0  0  0  0  0  0  0  0  0  0
  -24.8579   -0.6754  -24.1714 C   0  0  0  0  0  0  0  0  0  0  0  0
  -24.0331   -0.5059  -23.0682 C   0  0  0  0  0  0  0  0  0  0  0  0
  -23.9240    0.6278  -22.3084 O   0  0  0  0  0  0  0  0  0  0  0  0
  -24.6912    1.7521  -22.7199 C   0  0  0  0  0  0  0  0  0  0  0  0
  -23.2176   -1.5659  -22.6586 C   0  0  0  0  0  0  0  0  0  0  0  0
  -23.1766   -2.8009  -23.3365 C   0  0  0  0  0  0  0  0  0  0  0  0
  -22.3261   -3.8272  -22.9193 N   0  0  0  0  0  0  0  0  0  0  0  0
  -22.0870   -4.0031  -21.4821 C   0  0  0  0  0  0  0  0  0  0  0  0
  -21.8099   -5.4833  -21.2050 C   0  0  0  0  0  0  0  0  0  0  0  0
  -20.7215   -6.0492  -22.1180 C   0  0  0  0  0  0  0  0  0  0  0  0
  -21.0011   -5.6892  -23.5808 C   0  0  0  0  0  0  0  0  0  0  0  0
  -21.1417   -4.1453  -23.7673 C   0  0  0  0  0  0  0  0  0  0  0  0
  -19.8491   -3.4386  -23.5342 N   0  0  0  0  0  0  0  0  0  0  0  0
  -20.0119   -1.9835  -23.7072 C   0  0  0  0  0  0  0  0  0  0  0  0
  -18.7177   -1.2030  -23.9640 C   0  0  0  0  0  0  0  0  0  0  0  0
  -17.5389   -1.8768  -23.2917 C   0  0  0  0  0  0  0  0  0  0  0  0
  -17.3597   -3.2912  -23.8411 C   0  0  0  0  0  0  0  0  0  0  0  0
  -18.6800   -3.9691  -24.2676 C   0  0  0  0  0  0  0  0  0  0  0  0
  -18.8415   -3.9495  -25.8080 C   0  0  0  0  0  0  0  0  0  0  0  0
  -18.0379   -4.8314  -26.4835 N   0  0  0  0  0  0  0  0  0  0  0  0
  -19.5990   -3.2225  -26.4416 O   0  0  0  0  0  0  0  0  0  0  0  0
  1  2  1  0
  2  3  1  0
  3  4  1  0
  4  5  1  0
  5  6  2  0
  6  7  1  0
  7  8  2  0
  8  9  1  0
  9 10  1  0
  8 11  1  0
 11 12  2  0
 12 13  1  0
 13 14  1  0
 14 15  1  0
 15 16  1  0
 16 17  1  0
 17 18  1  0
 18 19  1  0
 19 20  1  0
 20 21  1  0
 21 22  1  0
 22 23  1  0
 23 24  1  0
 24 25  1  0
 25 26  1  0
 25 27  2  0
 12  5  1  0
 18 13  1  0
 24 19  1  0
M  END
$$$$
