
     RDKit          3D

 19 20  0  0  0  0  0  0  0  0999 V2000
   16.2098   -6.1890  -19.3246 N   0  0  0  0  0  0  0  0  0  0  0  0
   15.5705   -4.8742  -19.3362 C   0  0  0  0  0  0  0  0  0  0  0  0
   14.9205   -4.5272  -18.0041 C   0  0  0  0  0  0  0  0  0  0  0  0
   13.5913   -5.2285  -17.8113 C   0  0  0  0  0  0  0  0  0  0  0  0
   13.4333   -6.0455  -16.9008 O   0  0  0  0  0  0  0  0  0  0  0  0
   12.4780   -4.8993  -18.7915 C   0  0  0  0  0  0  0  0  0  0  0  0
   11.1006   -5.0938  -18.1721 C   0  0  0  0  0  0  0  0  0  0  0  0
   10.8309   -4.0974  -17.0581 C   0  0  0  0  0  0  0  0  0  0  0  0
   11.5644   -3.1241  -16.8701 O   0  0  0  0  0  0  0  0  0  0  0  0
    9.5970   -4.3422  -16.2097 C   0  0  0  0  0  0  0  0  0  0  0  0
    8.3467   -4.0586  -16.9714 C   0  0  0  0  0  0  0  0  0  0  0  0
    7.8072   -2.8115  -17.2130 C   0  0  0  0  0  0  0  0  0  0  0  0
    6.6675   -2.9707  -17.9525 N   0  0  0  0  0  0  0  0  0  0  0  0
    6.4541   -4.2992  -18.2158 C   0  0  0  0  0  0  0  0  0  0  0  0
    5.4288   -4.9178  -18.9409 C   0  0  0  0  0  0  0  0  0  0  0  0
    5.4634   -6.3134  -19.0559 C   0  0  0  0  0  0  0  0  0  0  0  0
    6.4834   -7.0537  -18.4670 C   0  0  0  0  0  0  0  0  0  0  0  0
    7.4981   -6.4191  -17.7400 C   0  0  0  0  0  0  0  0  0  0  0  0
    7.4877   -5.0117  -17.6097 C   0  0  0  0  0  0  0  0  0  0  0  0
  1  2  1  0
  2  3  1  0
  3  4  1  0
  4  5  2  0
  4  6  1  0
  6  7  1  0
  7  8  1  0
  8  9  2  0
  8 10  1  0
 10 11  1  0
 11 12  2  0
 12 13  1  0
 13 14  1  0
 14 15  2  0
 15 16  1  0
 16 17  2  0
 17 18  1  0
 18 19  2  0
 19 11  1  0
 19 14  1  0
M  END
$$$$
