
     RDKit          3D

 25 27  0  0  0  0  0  0  0  0999 V2000
  -28.7377  -12.3462   11.8504 N   0  0  0  0  0  0  0  0  0  0  0  0
  -28.6166  -11.3841   12.9450 C   0  0  0  0  0  0  0  0  0  0  0  0
  -28.6480   -9.9452   12.4327 C   0  0  0  0  0  0  0  0  0  0  0  0
  -27.3384   -9.5294   11.7816 C   0  0  0  0  0  0  0  0  0  0  0  0
  -26.4968  -10.3456   11.4032 O   0  0  0  0  0  0  0  0  0  0  0  0
  -27.0735   -8.0663   11.5986 C   0  0  0  0  0  0  0  0  0  0  0  0
  -28.1566   -7.1950   11.3892 C   0  0  0  0  0  0  0  0  0  0  0  0
  -27.9372   -5.8289   11.2191 C   0  0  0  0  0  0  0  0  0  0  0  0
  -26.6402   -5.3319   11.2673 C   0  0  0  0  0  0  0  0  0  0  0  0
  -26.3708   -3.6415   11.0855 Cl  0  0  0  0  0  0  0  0  0  0  0  0
  -25.5563   -6.1889   11.4700 C   0  0  0  0  0  0  0  0  0  0  0  0
  -25.7412   -7.5752   11.6057 C   0  0  0  0  0  0  0  0  0  0  0  0
  -24.6619   -8.4356   11.8998 N   0  0  0  0  0  0  0  0  0  0  0  0
  -23.3288   -8.1064   11.3833 C   0  0  0  0  0  0  0  0  0  0  0  0
  -22.3436   -9.2666   11.6311 C   0  0  0  0  0  0  0  0  0  0  0  0
  -21.0022   -8.8977   11.1886 N   0  0  0  0  0  0  0  0  0  0  0  0
  -20.0422   -9.9074   11.3396 C   0  0  0  0  0  0  0  0  0  0  0  0
  -20.3725  -11.2188   11.1982 N   0  0  0  0  0  0  0  0  0  0  0  0
  -19.4052  -12.1540   11.3297 C   0  0  0  0  0  0  0  0  0  0  0  0
  -18.0968  -11.9740   11.6035 N   0  0  0  0  0  0  0  0  0  0  0  0
  -17.8235  -10.6696   11.7403 C   0  0  0  0  0  0  0  0  0  0  0  0
  -16.6118  -10.1087   12.0204 N   0  0  0  0  0  0  0  0  0  0  0  0
  -16.7883   -8.7524   12.0797 C   0  0  0  0  0  0  0  0  0  0  0  0
  -18.0392   -8.4082   11.8542 N   0  0  0  0  0  0  0  0  0  0  0  0
  -18.6976   -9.6033   11.6307 C   0  0  0  0  0  0  0  0  0  0  0  0
  1  2  1  0
  2  3  1  0
  3  4  1  0
  4  5  2  0
  4  6  1  0
  6  7  2  0
  7  8  1  0
  8  9  2  0
  9 10  1  0
  9 11  1  0
 11 12  2  0
 12 13  1  0
 13 14  1  0
 14 15  1  0
 15 16  1  0
 16 17  1  0
 17 18  2  0
 18 19  1  0
 19 20  2  0
 20 21  1  0
 21 22  1  0
 22 23  1  0
 23 24  2  0
 24 25  1  0
 12  6  1  0
 25 17  1  0
 25 21  2  0
M  END
$$$$
