
     RDKit          3D

 29 31  0  0  0  0  0  0  0  0999 V2000
   -1.8037   -3.6633   -8.1207 C   0  0  0  0  0  0  0  0  0  0  0  0
   -0.5285   -4.2233   -7.6946 N   0  0  0  0  0  0  0  0  0  0  0  0
   -0.1321   -3.6954   -6.3824 C   0  0  0  0  0  0  0  0  0  0  0  0
    1.2480   -4.2099   -5.9301 C   0  0  0  0  0  0  0  0  0  0  0  0
    1.3817   -5.6509   -5.4632 C   0  0  0  0  0  0  0  0  0  0  0  0
    0.3343   -6.5773   -5.5887 C   0  0  0  0  0  0  0  0  0  0  0  0
    0.4690   -7.8954   -5.1393 C   0  0  0  0  0  0  0  0  0  0  0  0
    1.6581   -8.3158   -4.5562 C   0  0  0  0  0  0  0  0  0  0  0  0
    1.9243   -9.5708   -4.0817 O   0  0  0  0  0  0  0  0  0  0  0  0
    0.8737  -10.5253   -4.1680 C   0  0  0  0  0  0  0  0  0  0  0  0
    2.7104   -7.4068   -4.4313 C   0  0  0  0  0  0  0  0  0  0  0  0
    2.5972   -6.0779   -4.8779 C   0  0  0  0  0  0  0  0  0  0  0  0
    3.6727   -5.1682   -4.7817 N   0  0  0  0  0  0  0  0  0  0  0  0
    4.2124   -5.0102   -3.4175 C   0  0  0  0  0  0  0  0  0  0  0  0
    5.2452   -3.8892   -3.3941 C   0  0  0  0  0  0  0  0  0  0  0  0
    5.3522   -3.1161   -2.4396 O   0  0  0  0  0  0  0  0  0  0  0  0
    6.2411   -3.8548   -4.5345 C   0  0  0  0  0  0  0  0  0  0  0  0
    5.5506   -4.1107   -5.8712 C   0  0  0  0  0  0  0  0  0  0  0  0
    4.6900   -5.3802   -5.8179 C   0  0  0  0  0  0  0  0  0  0  0  0
    5.5097   -6.4912   -5.4792 O   0  0  0  0  0  0  0  0  0  0  0  0
    5.9803   -7.1697   -6.6317 C   0  0  0  0  0  0  0  0  0  0  0  0
    7.0641   -8.0318   -6.2484 N   0  0  0  0  0  0  0  0  0  0  0  0
    8.2422   -7.3707   -5.9438 C   0  0  0  0  0  0  0  0  0  0  0  0
    8.9560   -7.8941   -4.9339 N   0  0  0  0  0  0  0  0  0  0  0  0
   10.1211   -7.2838   -4.6243 C   0  0  0  0  0  0  0  0  0  0  0  0
   10.5890   -6.1797   -5.2858 C   0  0  0  0  0  0  0  0  0  0  0  0
   11.7456   -5.5932   -4.9625 F   0  0  0  0  0  0  0  0  0  0  0  0
    9.7950   -5.7143   -6.3003 C   0  0  0  0  0  0  0  0  0  0  0  0
    8.6208   -6.2871   -6.6460 N   0  0  0  0  0  0  0  0  0  0  0  0
  1  2  1  0
  2  3  1  0
  3  4  1  0
  4  5  1  0
  5  6  2  0
  6  7  1  0
  7  8  2  0
  8  9  1  0
  9 10  1  0
  8 11  1  0
 11 12  2  0
 12 13  1  0
 13 14  1  0
 14 15  1  0
 15 16  2  0
 15 17  1  0
 17 18  1  0
 18 19  1  0
 19 20  1  0
 20 21  1  0
 21 22  1  0
 22 23  1  0
 23 24  2  0
 24 25  1  0
 25 26  2  0
 26 27  1  0
 26 28  1  0
 28 29  2  0
 12  5  1  0
 19 13  1  0
 29 23  1  0
M  END
$$$$
