
     RDKit          3D

 19 20  0  0  0  0  0  0  0  0999 V2000
    0.0373  -11.3468   -1.7946 N   0  0  0  0  0  0  0  0  0  0  0  0
    0.5443  -11.8644   -3.0600 C   0  0  0  0  0  0  0  0  0  0  0  0
    0.5744  -10.7855   -4.1322 C   0  0  0  0  0  0  0  0  0  0  0  0
   -0.8177  -10.4050   -4.5925 C   0  0  0  0  0  0  0  0  0  0  0  0
   -1.5745  -11.2253   -5.1162 O   0  0  0  0  0  0  0  0  0  0  0  0
   -1.2464   -8.9780   -4.4026 C   0  0  0  0  0  0  0  0  0  0  0  0
   -1.6821   -8.6709   -2.9969 C   0  0  0  0  0  0  0  0  0  0  0  0
   -0.8886   -8.1949   -2.1819 O   0  0  0  0  0  0  0  0  0  0  0  0
   -3.1123   -8.9869   -2.6202 C   0  0  0  0  0  0  0  0  0  0  0  0
   -3.2043  -10.2927   -1.8451 C   0  0  0  0  0  0  0  0  0  0  0  0
   -4.6246  -10.6791   -1.5804 C   0  0  0  0  0  0  0  0  0  0  0  0
   -5.3712  -10.3592   -0.4637 C   0  0  0  0  0  0  0  0  0  0  0  0
   -6.6215  -10.8955   -0.6153 N   0  0  0  0  0  0  0  0  0  0  0  0
   -6.7133  -11.5606   -1.8155 C   0  0  0  0  0  0  0  0  0  0  0  0
   -7.7902  -12.2495   -2.3864 C   0  0  0  0  0  0  0  0  0  0  0  0
   -7.5910  -12.8398   -3.6380 C   0  0  0  0  0  0  0  0  0  0  0  0
   -6.3638  -12.7438   -4.2897 C   0  0  0  0  0  0  0  0  0  0  0  0
   -5.2976  -12.0510   -3.7047 C   0  0  0  0  0  0  0  0  0  0  0  0
   -5.4727  -11.4460   -2.4429 C   0  0  0  0  0  0  0  0  0  0  0  0
  1  2  1  0
  2  3  1  0
  3  4  1  0
  4  5  2  0
  4  6  1  0
  6  7  1  0
  7  8  2  0
  7  9  1  0
  9 10  1  0
 10 11  1  0
 11 12  2  0
 12 13  1  0
 13 14  1  0
 14 15  2  0
 15 16  1  0
 16 17  2  0
 17 18  1  0
 18 19  2  0
 19 11  1  0
 19 14  1  0
M  END
$$$$
