
     RDKit          3D

 16 17  0  0  0  0  0  0  0  0999 V2000
    6.3294  -12.5623  -11.9484 N   0  0  0  0  0  0  0  0  0  0  0  0
    5.4252  -12.6943  -10.8062 C   0  0  0  0  0  0  0  0  0  0  0  0
    4.0124  -13.0127  -11.2791 C   0  0  0  0  0  0  0  0  0  0  0  0
    3.0505  -13.1670  -10.1150 C   0  0  0  0  0  0  0  0  0  0  0  0
    3.3761  -12.9063   -8.9574 O   0  0  0  0  0  0  0  0  0  0  0  0
    1.6544  -13.6365  -10.4767 C   0  0  0  0  0  0  0  0  0  0  0  0
    0.7610  -13.7823   -9.2488 C   0  0  0  0  0  0  0  0  0  0  0  0
   -0.6138  -14.2455   -9.6151 C   0  0  0  0  0  0  0  0  0  0  0  0
   -1.0629  -15.5518   -9.6195 C   0  0  0  0  0  0  0  0  0  0  0  0
   -2.3726  -15.5555  -10.0168 N   0  0  0  0  0  0  0  0  0  0  0  0
   -2.7943  -14.2734  -10.2798 C   0  0  0  0  0  0  0  0  0  0  0  0
   -4.0410  -13.8046  -10.7115 C   0  0  0  0  0  0  0  0  0  0  0  0
   -4.1869  -12.4266  -10.8952 C   0  0  0  0  0  0  0  0  0  0  0  0
   -3.1277  -11.5550  -10.6549 C   0  0  0  0  0  0  0  0  0  0  0  0
   -1.8879  -12.0411  -10.2238 C   0  0  0  0  0  0  0  0  0  0  0  0
   -1.7132  -13.4273  -10.0320 C   0  0  0  0  0  0  0  0  0  0  0  0
  1  2  1  0
  2  3  1  0
  3  4  1  0
  4  5  2  0
  4  6  1  0
  6  7  1  0
  7  8  1  0
  8  9  2  0
  9 10  1  0
 10 11  1  0
 11 12  2  0
 12 13  1  0
 13 14  2  0
 14 15  1  0
 15 16  2  0
 16  8  1  0
 16 11  1  0
M  END
$$$$
