
     RDKit          3D

 26 29  0  0  0  0  0  0  0  0999 V2000
  -12.5041   -5.2485  -20.8422 N   0  0  0  0  0  0  0  0  0  0  0  0
  -11.9277   -4.5415  -19.7586 C   0  0  0  0  0  0  0  0  0  0  0  0
  -11.9007   -3.1489  -19.7743 C   0  0  0  0  0  0  0  0  0  0  0  0
  -11.2381   -2.4917  -18.7520 C   0  0  0  0  0  0  0  0  0  0  0  0
  -10.5840   -3.1188  -17.7535 N   0  0  0  0  0  0  0  0  0  0  0  0
  -10.5807   -4.4748  -17.7912 C   0  0  0  0  0  0  0  0  0  0  0  0
  -11.2154   -5.2489  -18.7645 C   0  0  0  0  0  0  0  0  0  0  0  0
  -11.1572   -6.6581  -18.8373 N   0  0  0  0  0  0  0  0  0  0  0  0
  -11.2864   -7.3848  -17.5651 C   0  0  0  0  0  0  0  0  0  0  0  0
  -10.9945   -8.8811  -17.7405 C   0  0  0  0  0  0  0  0  0  0  0  0
  -11.2094   -9.3458  -19.1740 C   0  0  0  0  0  0  0  0  0  0  0  0
  -10.3588   -8.5432  -20.1670 C   0  0  0  0  0  0  0  0  0  0  0  0
  -10.0551   -7.1089  -19.6950 C   0  0  0  0  0  0  0  0  0  0  0  0
   -8.8409   -7.0960  -18.9407 O   0  0  0  0  0  0  0  0  0  0  0  0
   -7.6922   -6.7603  -19.7266 C   0  0  0  0  0  0  0  0  0  0  0  0
   -7.5249   -5.2392  -19.8642 C   0  0  0  0  0  0  0  0  0  0  0  0
   -6.4872   -4.8894  -20.8279 N   0  0  0  0  0  0  0  0  0  0  0  0
   -5.1857   -4.8075  -20.3178 C   0  0  0  0  0  0  0  0  0  0  0  0
   -4.7722   -5.6209  -19.3100 N   0  0  0  0  0  0  0  0  0  0  0  0
   -3.5005   -5.5143  -18.8635 C   0  0  0  0  0  0  0  0  0  0  0  0
   -2.5307   -4.6783  -19.2867 N   0  0  0  0  0  0  0  0  0  0  0  0
   -2.9866   -3.8974  -20.2752 C   0  0  0  0  0  0  0  0  0  0  0  0
   -2.2936   -2.9317  -20.9448 N   0  0  0  0  0  0  0  0  0  0  0  0
   -3.1420   -2.3773  -21.8649 C   0  0  0  0  0  0  0  0  0  0  0  0
   -4.3373   -2.9283  -21.8270 N   0  0  0  0  0  0  0  0  0  0  0  0
   -4.2508   -3.8895  -20.8367 C   0  0  0  0  0  0  0  0  0  0  0  0
  1  2  1  0
  2  3  2  0
  3  4  1  0
  4  5  2  0
  5  6  1  0
  6  7  2  0
  7  8  1  0
  8  9  1  0
  9 10  1  0
 10 11  1  0
 11 12  1  0
 12 13  1  0
 13 14  1  0
 14 15  1  0
 15 16  1  0
 16 17  1  0
 17 18  1  0
 18 19  2  0
 19 20  1  0
 20 21  2  0
 21 22  1  0
 22 23  1  0
 23 24  1  0
 24 25  2  0
 25 26  1  0
  7  2  1  0
 13  8  1  0
 26 18  1  0
 26 22  2  0
M  END
$$$$
