
     RDKit          3D

 26 29  0  0  0  0  0  0  0  0999 V2000
  -21.6587    3.4232    8.8705 N   0  0  0  0  0  0  0  0  0  0  0  0
  -21.8395    3.4059   10.3189 C   0  0  0  0  0  0  0  0  0  0  0  0
  -20.8759    4.3307   11.0198 C   0  0  0  0  0  0  0  0  0  0  0  0
  -21.2145    5.6999   11.0480 C   0  0  0  0  0  0  0  0  0  0  0  0
  -20.3991    6.5997   11.7137 C   0  0  0  0  0  0  0  0  0  0  0  0
  -19.2762    6.2437   12.3570 N   0  0  0  0  0  0  0  0  0  0  0  0
  -18.9574    4.9292   12.3066 C   0  0  0  0  0  0  0  0  0  0  0  0
  -19.6891    3.9215   11.6545 C   0  0  0  0  0  0  0  0  0  0  0  0
  -19.1990    2.6112   11.7217 N   0  0  0  0  0  0  0  0  0  0  0  0
  -19.7862    1.7917   12.7986 C   0  0  0  0  0  0  0  0  0  0  0  0
  -20.5540    0.5898   12.2756 C   0  0  0  0  0  0  0  0  0  0  0  0
  -21.6006    0.2080   12.8040 O   0  0  0  0  0  0  0  0  0  0  0  0
  -19.9657   -0.1621   11.1051 C   0  0  0  0  0  0  0  0  0  0  0  0
  -18.6440    0.4465   10.6617 C   0  0  0  0  0  0  0  0  0  0  0  0
  -18.7982    1.9612   10.4432 C   0  0  0  0  0  0  0  0  0  0  0  0
  -17.4719    2.5610    9.9014 C   0  0  0  0  0  0  0  0  0  0  0  0
  -16.4296    2.5171   10.9312 N   0  0  0  0  0  0  0  0  0  0  0  0
  -15.1785    2.8486   10.5599 C   0  0  0  0  0  0  0  0  0  0  0  0
  -14.6673    2.9108    9.3539 N   0  0  0  0  0  0  0  0  0  0  0  0
  -13.3584    3.2897    9.5275 C   0  0  0  0  0  0  0  0  0  0  0  0
  -12.3533    3.5117    8.5751 C   0  0  0  0  0  0  0  0  0  0  0  0
  -11.0810    3.8961    9.0184 C   0  0  0  0  0  0  0  0  0  0  0  0
  -10.8153    4.0553   10.3812 C   0  0  0  0  0  0  0  0  0  0  0  0
  -11.8055    3.8376   11.3469 C   0  0  0  0  0  0  0  0  0  0  0  0
  -13.0634    3.4566   10.8758 C   0  0  0  0  0  0  0  0  0  0  0  0
  -14.2431    3.1641   11.5093 N   0  0  0  0  0  0  0  0  0  0  0  0
  1  2  1  0
  2  3  1  0
  3  4  2  0
  4  5  1  0
  5  6  2  0
  6  7  1  0
  7  8  2  0
  8  9  1  0
  9 10  1  0
 10 11  1  0
 11 12  2  0
 11 13  1  0
 13 14  1  0
 14 15  1  0
 15 16  1  0
 16 17  1  0
 17 18  1  0
 18 19  2  0
 19 20  1  0
 20 21  2  0
 21 22  1  0
 22 23  2  0
 23 24  1  0
 24 25  2  0
 25 26  1  0
  8  3  1  0
 15  9  1  0
 26 18  1  0
 25 20  1  0
M  END
$$$$
