
     RDKit          3D

 19 20  0  0  0  0  0  0  0  0999 V2000
  -26.8701    5.8415   17.7460 C   0  0  0  0  0  0  0  0  0  0  0  0
  -27.1268    4.9289   16.6653 N   0  0  0  0  0  0  0  0  0  0  0  0
  -26.0847    4.3389   15.9817 C   0  0  0  0  0  0  0  0  0  0  0  0
  -24.9062    4.6509   16.1285 O   0  0  0  0  0  0  0  0  0  0  0  0
  -26.5359    3.2682   15.0092 C   0  0  0  0  0  0  0  0  0  0  0  0
  -26.6929    1.9113   15.6593 C   0  0  0  0  0  0  0  0  0  0  0  0
  -25.6473    0.9817   15.5128 C   0  0  0  0  0  0  0  0  0  0  0  0
  -25.7323   -0.2946   16.0707 C   0  0  0  0  0  0  0  0  0  0  0  0
  -26.8690   -0.6641   16.7793 C   0  0  0  0  0  0  0  0  0  0  0  0
  -27.0962   -1.8838   17.3574 O   0  0  0  0  0  0  0  0  0  0  0  0
  -26.0587   -2.8501   17.2450 C   0  0  0  0  0  0  0  0  0  0  0  0
  -27.9065    0.2614   16.9410 C   0  0  0  0  0  0  0  0  0  0  0  0
  -27.8337    1.5652   16.4174 C   0  0  0  0  0  0  0  0  0  0  0  0
  -28.8807    2.5059   16.5868 N   0  0  0  0  0  0  0  0  0  0  0  0
  -29.9199    2.3230   15.5591 C   0  0  0  0  0  0  0  0  0  0  0  0
  -30.7536    3.6046   15.4737 C   0  0  0  0  0  0  0  0  0  0  0  0
  -30.9689    4.2758   16.8334 C   0  0  0  0  0  0  0  0  0  0  0  0
  -30.7961    3.2904   17.9815 C   0  0  0  0  0  0  0  0  0  0  0  0
  -29.4215    2.6070   17.9650 C   0  0  0  0  0  0  0  0  0  0  0  0
  1  2  1  0
  2  3  1  0
  3  4  2  0
  3  5  1  0
  5  6  1  0
  6  7  2  0
  7  8  1  0
  8  9  2  0
  9 10  1  0
 10 11  1  0
  9 12  1  0
 12 13  2  0
 13 14  1  0
 14 15  1  0
 15 16  1  0
 16 17  1  0
 17 18  1  0
 18 19  1  0
 13  6  1  0
 19 14  1  0
M  END
$$$$
