
     RDKit          3D

 19 20  0  0  0  0  0  0  0  0999 V2000
   -7.0190    3.2778    2.8430 N   0  0  0  0  0  0  0  0  0  0  0  0
   -6.5120    2.7601    1.5775 C   0  0  0  0  0  0  0  0  0  0  0  0
   -6.4820    3.8391    0.5053 C   0  0  0  0  0  0  0  0  0  0  0  0
   -7.8740    4.2195    0.0451 C   0  0  0  0  0  0  0  0  0  0  0  0
   -8.6308    3.3993   -0.4786 O   0  0  0  0  0  0  0  0  0  0  0  0
   -8.3027    5.6465    0.2349 C   0  0  0  0  0  0  0  0  0  0  0  0
   -8.7384    5.9536    1.6407 C   0  0  0  0  0  0  0  0  0  0  0  0
   -7.9449    6.4297    2.4557 O   0  0  0  0  0  0  0  0  0  0  0  0
  -10.1686    5.6377    2.0174 C   0  0  0  0  0  0  0  0  0  0  0  0
  -10.2607    4.3319    2.7925 C   0  0  0  0  0  0  0  0  0  0  0  0
  -11.6809    3.9454    3.0572 C   0  0  0  0  0  0  0  0  0  0  0  0
  -12.4276    4.2653    4.1739 C   0  0  0  0  0  0  0  0  0  0  0  0
  -13.6779    3.7291    4.0223 N   0  0  0  0  0  0  0  0  0  0  0  0
  -13.7696    3.0640    2.8220 C   0  0  0  0  0  0  0  0  0  0  0  0
  -14.8465    2.3750    2.2511 C   0  0  0  0  0  0  0  0  0  0  0  0
  -14.6473    1.7847    0.9995 C   0  0  0  0  0  0  0  0  0  0  0  0
  -13.4201    1.8808    0.3479 C   0  0  0  0  0  0  0  0  0  0  0  0
  -12.3539    2.5736    0.9328 C   0  0  0  0  0  0  0  0  0  0  0  0
  -12.5291    3.1786    2.1947 C   0  0  0  0  0  0  0  0  0  0  0  0
  1  2  1  0
  2  3  1  0
  3  4  1  0
  4  5  2  0
  4  6  1  0
  6  7  1  0
  7  8  2  0
  7  9  1  0
  9 10  1  0
 10 11  1  0
 11 12  2  0
 12 13  1  0
 13 14  1  0
 14 15  2  0
 15 16  1  0
 16 17  2  0
 17 18  1  0
 18 19  2  0
 19 11  1  0
 19 14  1  0
M  END
$$$$
