
     RDKit          3D

 16 17  0  0  0  0  0  0  0  0999 V2000
  -12.0971   -7.7844  -32.7691 C   0  0  0  0  0  0  0  0  0  0  0  0
  -13.5048   -7.9819  -32.7497 O   0  0  0  0  0  0  0  0  0  0  0  0
  -14.2351   -7.1374  -31.9600 C   0  0  0  0  0  0  0  0  0  0  0  0
  -13.7320   -6.1121  -31.1728 C   0  0  0  0  0  0  0  0  0  0  0  0
  -14.6062   -5.3231  -30.4200 C   0  0  0  0  0  0  0  0  0  0  0  0
  -16.0045   -5.5236  -30.4413 C   0  0  0  0  0  0  0  0  0  0  0  0
  -16.8776   -4.6193  -29.6000 C   0  0  0  0  0  0  0  0  0  0  0  0
  -16.3836   -3.2409  -29.5113 N   0  0  0  0  0  0  0  0  0  0  0  0
  -16.5152   -6.5943  -31.2042 C   0  0  0  0  0  0  0  0  0  0  0  0
  -17.8587   -6.9796  -31.2881 N   0  0  0  0  0  0  0  0  0  0  0  0
  -18.5291   -7.3600  -30.0440 C   0  0  0  0  0  0  0  0  0  0  0  0
  -19.7690   -8.1891  -30.3823 C   0  0  0  0  0  0  0  0  0  0  0  0
  -20.6808   -7.4435  -31.3567 C   0  0  0  0  0  0  0  0  0  0  0  0
  -19.9114   -7.0190  -32.6074 C   0  0  0  0  0  0  0  0  0  0  0  0
  -18.6590   -6.2170  -32.2499 C   0  0  0  0  0  0  0  0  0  0  0  0
  -15.6123   -7.3672  -31.9650 C   0  0  0  0  0  0  0  0  0  0  0  0
  1  2  1  0
  2  3  1  0
  3  4  2  0
  4  5  1  0
  5  6  2  0
  6  7  1  0
  7  8  1  0
  6  9  1  0
  9 10  1  0
 10 11  1  0
 11 12  1  0
 12 13  1  0
 13 14  1  0
 14 15  1  0
  9 16  2  0
 16  3  1  0
 15 10  1  0
M  END
$$$$
