
     RDKit          3D

 27 29  0  0  0  0  0  0  0  0999 V2000
   75.9071   29.6214  -53.1123 N   0  0  0  0  0  0  0  0  0  0  0  0
   75.4089   30.2662  -54.3278 C   0  0  0  0  0  0  0  0  0  0  0  0
   73.9416   30.7085  -54.2148 C   0  0  0  0  0  0  0  0  0  0  0  0
   73.7394   31.9491  -53.3709 C   0  0  0  0  0  0  0  0  0  0  0  0
   74.0225   33.2001  -53.9402 C   0  0  0  0  0  0  0  0  0  0  0  0
   73.8343   34.3471  -53.1861 C   0  0  0  0  0  0  0  0  0  0  0  0
   73.3857   34.3422  -51.9171 N   0  0  0  0  0  0  0  0  0  0  0  0
   73.1223   33.1299  -51.3796 C   0  0  0  0  0  0  0  0  0  0  0  0
   73.2835   31.9098  -52.0407 C   0  0  0  0  0  0  0  0  0  0  0  0
   72.9298   30.6398  -51.3099 C   0  0  0  0  0  0  0  0  0  0  0  0
   71.6139   30.1829  -51.7448 N   0  0  0  0  0  0  0  0  0  0  0  0
   71.0012   29.1843  -50.9460 C   0  0  0  0  0  0  0  0  0  0  0  0
   71.6977   28.0628  -50.4939 C   0  0  0  0  0  0  0  0  0  0  0  0
   71.0209   27.1206  -49.7372 C   0  0  0  0  0  0  0  0  0  0  0  0
   69.7148   27.2076  -49.4165 N   0  0  0  0  0  0  0  0  0  0  0  0
   69.0487   28.2875  -49.8929 C   0  0  0  0  0  0  0  0  0  0  0  0
   69.6161   29.3008  -50.6684 C   0  0  0  0  0  0  0  0  0  0  0  0
   68.9081   30.4108  -51.1801 N   0  0  0  0  0  0  0  0  0  0  0  0
   68.4446   30.1774  -52.5617 C   0  0  0  0  0  0  0  0  0  0  0  0
   67.5039   31.2938  -53.0316 C   0  0  0  0  0  0  0  0  0  0  0  0
   67.7990   32.6152  -52.3340 C   0  0  0  0  0  0  0  0  0  0  0  0
   67.7232   32.4942  -50.8043 C   0  0  0  0  0  0  0  0  0  0  0  0
   67.9303   31.0539  -50.2893 C   0  0  0  0  0  0  0  0  0  0  0  0
   66.6930   30.3304  -50.3084 O   0  0  0  0  0  0  0  0  0  0  0  0
   65.8834   30.5745  -49.2586 C   0  0  0  0  0  0  0  0  0  0  0  0
   64.7611   29.8284  -49.3599 N   0  0  0  0  0  0  0  0  0  0  0  0
   66.0982   31.3409  -48.3349 O   0  0  0  0  0  0  0  0  0  0  0  0
  1  2  1  0
  2  3  1  0
  3  4  1  0
  4  5  2  0
  5  6  1  0
  6  7  2  0
  7  8  1  0
  8  9  2  0
  9 10  1  0
 10 11  1  0
 11 12  1  0
 12 13  2  0
 13 14  1  0
 14 15  2  0
 15 16  1  0
 16 17  2  0
 17 18  1  0
 18 19  1  0
 19 20  1  0
 20 21  1  0
 21 22  1  0
 22 23  1  0
 23 24  1  0
 24 25  1  0
 25 26  1  0
 25 27  2  0
  9  4  1  0
 17 12  1  0
 23 18  1  0
M  END
$$$$
