
     RDKit          3D

 19 20  0  0  0  0  0  0  0  0999 V2000
   20.5497   -8.3010  -29.5371 C   0  0  0  0  0  0  0  0  0  0  0  0
   21.2700   -8.2944  -30.8044 N   0  0  0  0  0  0  0  0  0  0  0  0
   22.6384   -8.8390  -30.6691 C   0  0  0  0  0  0  0  0  0  0  0  0
   22.6736  -10.3855  -30.5363 C   0  0  0  0  0  0  0  0  0  0  0  0
   24.1142  -10.9102  -30.5317 C   0  0  0  0  0  0  0  0  0  0  0  0
   24.7370  -10.8392  -29.1492 C   0  0  0  0  0  0  0  0  0  0  0  0
   24.3606  -10.0155  -28.3073 O   0  0  0  0  0  0  0  0  0  0  0  0
   25.8129  -11.8566  -28.8162 C   0  0  0  0  0  0  0  0  0  0  0  0
   26.9310  -11.8644  -29.8054 C   0  0  0  0  0  0  0  0  0  0  0  0
   27.2308  -12.8774  -30.6968 C   0  0  0  0  0  0  0  0  0  0  0  0
   28.3510  -12.5135  -31.3977 N   0  0  0  0  0  0  0  0  0  0  0  0
   28.7709  -11.2644  -31.0109 C   0  0  0  0  0  0  0  0  0  0  0  0
   29.8497  -10.4948  -31.4634 C   0  0  0  0  0  0  0  0  0  0  0  0
   30.0502   -9.2468  -30.8668 C   0  0  0  0  0  0  0  0  0  0  0  0
   29.2069   -8.7905  -29.8567 C   0  0  0  0  0  0  0  0  0  0  0  0
   28.1315   -9.5728  -29.4167 C   0  0  0  0  0  0  0  0  0  0  0  0
   27.9053  -10.8345  -30.0049 C   0  0  0  0  0  0  0  0  0  0  0  0
   21.9724  -10.9305  -31.6763 O   0  0  0  0  0  0  0  0  0  0  0  0
   21.3524  -12.1828  -31.4046 C   0  0  0  0  0  0  0  0  0  0  0  0
  1  2  1  0
  2  3  1  0
  3  4  1  0
  4  5  1  0
  5  6  1  0
  6  7  2  0
  6  8  1  0
  8  9  1  0
  9 10  2  0
 10 11  1  0
 11 12  1  0
 12 13  2  0
 13 14  1  0
 14 15  2  0
 15 16  1  0
 16 17  2  0
  4 18  1  0
 18 19  1  0
 17  9  1  0
 17 12  1  0
M  END
$$$$
