
     RDKit          3D

 27 30  0  0  0  0  0  0  0  0999 V2000
    9.3360   13.0989  -32.4021 N   0  0  0  0  0  0  0  0  0  0  0  0
   10.3372   11.7414  -32.3401 S   0  0  0  0  0  0  0  0  0  0  0  0
   11.1019   11.7915  -33.5643 O   0  0  0  0  0  0  0  0  0  0  0  0
    9.4288   10.6632  -32.0237 O   0  0  0  0  0  0  0  0  0  0  0  0
   11.4190   12.0302  -30.9756 C   0  0  0  0  0  0  0  0  0  0  0  0
   11.4880   13.3382  -30.4683 C   0  0  0  0  0  0  0  0  0  0  0  0
   12.1924   13.5635  -29.3029 C   0  0  0  0  0  0  0  0  0  0  0  0
   12.8051   12.5882  -28.6146 N   0  0  0  0  0  0  0  0  0  0  0  0
   12.7328   11.3436  -29.1441 C   0  0  0  0  0  0  0  0  0  0  0  0
   12.0903   10.9786  -30.3388 C   0  0  0  0  0  0  0  0  0  0  0  0
   12.2049    9.6616  -30.7635 N   0  0  0  0  0  0  0  0  0  0  0  0
   11.5495    8.6508  -29.9176 C   0  0  0  0  0  0  0  0  0  0  0  0
   10.8163    7.6192  -30.7675 C   0  0  0  0  0  0  0  0  0  0  0  0
   11.7456    6.9101  -31.7483 C   0  0  0  0  0  0  0  0  0  0  0  0
   12.9530    7.7590  -32.1431 C   0  0  0  0  0  0  0  0  0  0  0  0
   12.6278    9.2664  -32.1392 C   0  0  0  0  0  0  0  0  0  0  0  0
   13.8669   10.0627  -32.6428 C   0  0  0  0  0  0  0  0  0  0  0  0
   14.9699    9.9885  -31.6791 N   0  0  0  0  0  0  0  0  0  0  0  0
   16.0957   10.6639  -31.9798 C   0  0  0  0  0  0  0  0  0  0  0  0
   16.4966   11.1229  -33.1411 N   0  0  0  0  0  0  0  0  0  0  0  0
   17.6992   11.7402  -32.8977 C   0  0  0  0  0  0  0  0  0  0  0  0
   18.5629   12.4047  -33.7802 C   0  0  0  0  0  0  0  0  0  0  0  0
   19.7450   12.9598  -33.2732 C   0  0  0  0  0  0  0  0  0  0  0  0
   20.0601   12.8556  -31.9157 C   0  0  0  0  0  0  0  0  0  0  0  0
   19.2114   12.1945  -31.0195 C   0  0  0  0  0  0  0  0  0  0  0  0
   18.0412   11.6515  -31.5532 C   0  0  0  0  0  0  0  0  0  0  0  0
   17.0022   10.9536  -30.9947 N   0  0  0  0  0  0  0  0  0  0  0  0
  1  2  1  0
  2  3  2  0
  2  4  2  0
  2  5  1  0
  5  6  2  0
  6  7  1  0
  7  8  2  0
  8  9  1  0
  9 10  2  0
 10 11  1  0
 11 12  1  0
 12 13  1  0
 13 14  1  0
 14 15  1  0
 15 16  1  0
 16 17  1  0
 17 18  1  0
 18 19  1  0
 19 20  2  0
 20 21  1  0
 21 22  2  0
 22 23  1  0
 23 24  2  0
 24 25  1  0
 25 26  2  0
 26 27  1  0
 10  5  1  0
 16 11  1  0
 27 19  1  0
 26 21  1  0
M  END
$$$$
