
     RDKit          3D

 26 28  0  0  0  0  0  0  0  0999 V2000
   -9.4804   -6.8039   13.5604 C   0  0  0  0  0  0  0  0  0  0  0  0
   -8.9334   -5.7997   12.6856 N   0  0  0  0  0  0  0  0  0  0  0  0
   -7.9628   -4.9272   13.1227 C   0  0  0  0  0  0  0  0  0  0  0  0
   -7.4432   -4.9925   14.2264 O   0  0  0  0  0  0  0  0  0  0  0  0
   -7.5654   -3.8988   12.0848 C   0  0  0  0  0  0  0  0  0  0  0  0
   -8.2647   -2.5720   12.2716 C   0  0  0  0  0  0  0  0  0  0  0  0
   -7.6573   -1.6306   13.1209 C   0  0  0  0  0  0  0  0  0  0  0  0
   -8.2394   -0.3844   13.3530 C   0  0  0  0  0  0  0  0  0  0  0  0
   -9.4402   -0.0576   12.7362 C   0  0  0  0  0  0  0  0  0  0  0  0
  -10.1124    1.1266   12.8626 O   0  0  0  0  0  0  0  0  0  0  0  0
   -9.4947    2.1292   13.6600 C   0  0  0  0  0  0  0  0  0  0  0  0
  -10.0594   -0.9943   11.9029 C   0  0  0  0  0  0  0  0  0  0  0  0
   -9.5049   -2.2661   11.6663 C   0  0  0  0  0  0  0  0  0  0  0  0
  -10.1242   -3.2119   10.8002 N   0  0  0  0  0  0  0  0  0  0  0  0
   -9.6400   -2.9471    9.4177 C   0  0  0  0  0  0  0  0  0  0  0  0
  -10.1558   -3.9769    8.4194 C   0  0  0  0  0  0  0  0  0  0  0  0
   -9.6025   -4.1319    7.3146 O   0  0  0  0  0  0  0  0  0  0  0  0
  -11.4831   -4.6587    8.6962 C   0  0  0  0  0  0  0  0  0  0  0  0
  -11.9528   -4.6220   10.1486 C   0  0  0  0  0  0  0  0  0  0  0  0
  -11.6130   -3.2794   10.8396 C   0  0  0  0  0  0  0  0  0  0  0  0
  -12.3580   -3.1086   12.0875 N   0  0  0  0  0  0  0  0  0  0  0  0
  -13.7557   -2.7320   11.9399 C   0  0  0  0  0  0  0  0  0  0  0  0
  -14.2930   -2.2270   13.2778 C   0  0  0  0  0  0  0  0  0  0  0  0
  -14.1225   -3.2432   14.4072 C   0  0  0  0  0  0  0  0  0  0  0  0
  -13.2872   -4.4467   13.9871 C   0  0  0  0  0  0  0  0  0  0  0  0
  -12.0589   -4.0430   13.1682 C   0  0  0  0  0  0  0  0  0  0  0  0
  1  2  1  0
  2  3  1  0
  3  4  2  0
  3  5  1  0
  5  6  1  0
  6  7  2  0
  7  8  1  0
  8  9  2  0
  9 10  1  0
 10 11  1  0
  9 12  1  0
 12 13  2  0
 13 14  1  0
 14 15  1  0
 15 16  1  0
 16 17  2  0
 16 18  1  0
 18 19  1  0
 19 20  1  0
 20 21  1  0
 21 22  1  0
 22 23  1  0
 23 24  1  0
 24 25  1  0
 25 26  1  0
 13  6  1  0
 20 14  1  0
 26 21  1  0
M  END
$$$$
