
     RDKit          3D

 17 18  0  0  0  0  0  0  0  0999 V2000
  -19.8995   -6.1344  -10.6714 C   0  0  0  0  0  0  0  0  0  0  0  0
  -21.2990   -6.3242  -10.3344 N   0  0  0  0  0  0  0  0  0  0  0  0
  -22.1512   -5.2156  -10.2673 C   0  0  0  0  0  0  0  0  0  0  0  0
  -21.7045   -3.9088  -10.0749 C   0  0  0  0  0  0  0  0  0  0  0  0
  -22.6055   -2.8459   -9.9482 C   0  0  0  0  0  0  0  0  0  0  0  0
  -23.9840   -3.0727   -9.9812 C   0  0  0  0  0  0  0  0  0  0  0  0
  -24.9278   -2.0829   -9.8388 O   0  0  0  0  0  0  0  0  0  0  0  0
  -24.4715   -0.7650   -9.5738 C   0  0  0  0  0  0  0  0  0  0  0  0
  -24.4779   -4.3913  -10.1375 C   0  0  0  0  0  0  0  0  0  0  0  0
  -25.8722   -4.6339  -10.1664 N   0  0  0  0  0  0  0  0  0  0  0  0
  -26.3465   -5.9197   -9.6553 C   0  0  0  0  0  0  0  0  0  0  0  0
  -27.8474   -5.8108   -9.4028 C   0  0  0  0  0  0  0  0  0  0  0  0
  -28.5891   -5.4983  -10.6929 C   0  0  0  0  0  0  0  0  0  0  0  0
  -28.0036   -4.2828  -11.3783 C   0  0  0  0  0  0  0  0  0  0  0  0
  -28.7320   -3.4972  -11.9900 O   0  0  0  0  0  0  0  0  0  0  0  0
  -26.4837   -4.1885  -11.4372 C   0  0  0  0  0  0  0  0  0  0  0  0
  -23.5390   -5.4365  -10.2583 C   0  0  0  0  0  0  0  0  0  0  0  0
  1  2  1  0
  2  3  1  0
  3  4  2  0
  4  5  1  0
  5  6  2  0
  6  7  1  0
  7  8  1  0
  6  9  1  0
  9 10  1  0
 10 11  1  0
 11 12  1  0
 12 13  1  0
 13 14  1  0
 14 15  2  0
 14 16  1  0
  9 17  2  0
 17  3  1  0
 16 10  1  0
M  END
$$$$
