
     RDKit          3D

 19 20  0  0  0  0  0  0  0  0999 V2000
    5.5912   58.7325    9.6643 C   0  0  0  0  0  0  0  0  0  0  0  0
    5.1247   57.5343    8.9875 N   0  0  0  0  0  0  0  0  0  0  0  0
    6.0062   56.3879    9.2729 C   0  0  0  0  0  0  0  0  0  0  0  0
    5.6628   55.2469    8.3160 C   0  0  0  0  0  0  0  0  0  0  0  0
    5.4650   55.4402    7.1129 O   0  0  0  0  0  0  0  0  0  0  0  0
    5.6892   53.8485    8.8190 C   0  0  0  0  0  0  0  0  0  0  0  0
    6.4091   52.9291    8.0372 C   0  0  0  0  0  0  0  0  0  0  0  0
    6.5335   51.5987    8.4374 C   0  0  0  0  0  0  0  0  0  0  0  0
    5.9296   51.1762    9.6165 C   0  0  0  0  0  0  0  0  0  0  0  0
    5.9646   49.9072   10.1271 O   0  0  0  0  0  0  0  0  0  0  0  0
    6.6680   48.9281    9.3723 C   0  0  0  0  0  0  0  0  0  0  0  0
    5.1960   52.0934   10.3823 C   0  0  0  0  0  0  0  0  0  0  0  0
    5.0490   53.4431   10.0082 C   0  0  0  0  0  0  0  0  0  0  0  0
    4.2476   54.3228   10.7547 N   0  0  0  0  0  0  0  0  0  0  0  0
    2.9469   54.5999   10.1057 C   0  0  0  0  0  0  0  0  0  0  0  0
    2.0504   55.4119   11.0357 C   0  0  0  0  0  0  0  0  0  0  0  0
    1.7574   54.6567   12.3328 C   0  0  0  0  0  0  0  0  0  0  0  0
    2.8912   53.7114   12.7341 C   0  0  0  0  0  0  0  0  0  0  0  0
    4.2396   54.2079   12.2234 C   0  0  0  0  0  0  0  0  0  0  0  0
  1  2  1  0
  2  3  1  0
  3  4  1  0
  4  5  2  0
  4  6  1  0
  6  7  2  0
  7  8  1  0
  8  9  2  0
  9 10  1  0
 10 11  1  0
  9 12  1  0
 12 13  2  0
 13 14  1  0
 14 15  1  0
 15 16  1  0
 16 17  1  0
 17 18  1  0
 18 19  1  0
 13  6  1  0
 19 14  1  0
M  END
$$$$
