
     RDKit          3D

 28 30  0  0  0  0  0  0  0  0999 V2000
   -3.0415   -0.1092   13.2636 C   0  0  0  0  0  0  0  0  0  0  0  0
   -4.0532    0.5517   14.0173 O   0  0  0  0  0  0  0  0  0  0  0  0
   -3.8067    1.8393   14.4173 C   0  0  0  0  0  0  0  0  0  0  0  0
   -2.6567    2.5679   14.1018 C   0  0  0  0  0  0  0  0  0  0  0  0
   -2.4799    3.8685   14.5895 C   0  0  0  0  0  0  0  0  0  0  0  0
   -3.4469    4.4653   15.4068 C   0  0  0  0  0  0  0  0  0  0  0  0
   -3.2430    5.8486   15.9645 C   0  0  0  0  0  0  0  0  0  0  0  0
   -2.8987    5.7955   17.3759 N   0  0  0  0  0  0  0  0  0  0  0  0
   -4.5982    3.7353   15.7273 C   0  0  0  0  0  0  0  0  0  0  0  0
   -4.7862    2.4478   15.2159 C   0  0  0  0  0  0  0  0  0  0  0  0
   -5.9225    1.7889   15.6154 O   0  0  0  0  0  0  0  0  0  0  0  0
   -6.8320    1.6314   14.5336 C   0  0  0  0  0  0  0  0  0  0  0  0
   -7.9922    0.9990   15.0907 N   0  0  0  0  0  0  0  0  0  0  0  0
   -9.0224    0.5645   14.2950 C   0  0  0  0  0  0  0  0  0  0  0  0
   -9.0311    0.5861   13.0688 O   0  0  0  0  0  0  0  0  0  0  0  0
  -10.1781    0.0314   15.0462 C   0  0  0  0  0  0  0  0  0  0  0  0
  -10.3433   -1.3599   15.0247 C   0  0  0  0  0  0  0  0  0  0  0  0
  -11.3501   -1.9453   15.7832 C   0  0  0  0  0  0  0  0  0  0  0  0
  -12.1746   -1.1447   16.5626 C   0  0  0  0  0  0  0  0  0  0  0  0
  -12.0146    0.2471   16.5687 C   0  0  0  0  0  0  0  0  0  0  0  0
  -11.0234    0.8770   15.7977 C   0  0  0  0  0  0  0  0  0  0  0  0
  -10.8719    2.2786   15.7735 N   0  0  0  0  0  0  0  0  0  0  0  0
  -11.2463    2.8800   14.4752 C   0  0  0  0  0  0  0  0  0  0  0  0
  -10.5758    4.2502   14.3730 C   0  0  0  0  0  0  0  0  0  0  0  0
  -11.0520    5.1680   15.4917 C   0  0  0  0  0  0  0  0  0  0  0  0
  -10.8616    4.5080   16.8397 C   0  0  0  0  0  0  0  0  0  0  0  0
  -10.4824    5.1586   17.8209 O   0  0  0  0  0  0  0  0  0  0  0  0
  -11.3203    3.0510   16.9489 C   0  0  0  0  0  0  0  0  0  0  0  0
  1  2  1  0
  2  3  1  0
  3  4  2  0
  4  5  1  0
  5  6  2  0
  6  7  1  0
  7  8  1  0
  6  9  1  0
  9 10  2  0
 10 11  1  0
 11 12  1  0
 12 13  1  0
 13 14  1  0
 14 15  2  0
 14 16  1  0
 16 17  2  0
 17 18  1  0
 18 19  2  0
 19 20  1  0
 20 21  2  0
 21 22  1  0
 22 23  1  0
 23 24  1  0
 24 25  1  0
 25 26  1  0
 26 27  2  0
 26 28  1  0
 10  3  1  0
 21 16  1  0
 28 22  1  0
M  END
$$$$
