
     RDKit          3D

 18 19  0  0  0  0  0  0  0  0999 V2000
   15.2448   24.5183  -11.9102 N   0  0  0  0  0  0  0  0  0  0  0  0
   14.7302   25.8772  -11.7566 C   0  0  0  0  0  0  0  0  0  0  0  0
   13.4965   26.1429  -12.6090 C   0  0  0  0  0  0  0  0  0  0  0  0
   12.2766   25.4468  -12.0467 C   0  0  0  0  0  0  0  0  0  0  0  0
   11.8700   24.3880  -12.5296 O   0  0  0  0  0  0  0  0  0  0  0  0
   11.6207   26.0562  -10.8216 C   0  0  0  0  0  0  0  0  0  0  0  0
   10.0995   25.9928  -10.9240 C   0  0  0  0  0  0  0  0  0  0  0  0
    9.5646   26.9541  -11.9704 C   0  0  0  0  0  0  0  0  0  0  0  0
   10.3396   27.6973  -12.5787 O   0  0  0  0  0  0  0  0  0  0  0  0
    8.1219   27.0033  -12.2359 C   0  0  0  0  0  0  0  0  0  0  0  0
    7.5759   27.8376  -13.1989 C   0  0  0  0  0  0  0  0  0  0  0  0
    6.2231   27.6666  -13.2187 N   0  0  0  0  0  0  0  0  0  0  0  0
    5.8518   26.7353  -12.2798 C   0  0  0  0  0  0  0  0  0  0  0  0
    4.5736   26.2601  -11.9586 C   0  0  0  0  0  0  0  0  0  0  0  0
    4.4684   25.2996  -10.9522 C   0  0  0  0  0  0  0  0  0  0  0  0
    5.6005   24.8344  -10.2944 C   0  0  0  0  0  0  0  0  0  0  0  0
    6.8718   25.3204  -10.6277 C   0  0  0  0  0  0  0  0  0  0  0  0
    7.0175   26.2941  -11.6429 C   0  0  0  0  0  0  0  0  0  0  0  0
  1  2  1  0
  2  3  1  0
  3  4  1  0
  4  5  2  0
  4  6  1  0
  6  7  1  0
  7  8  1  0
  8  9  2  0
  8 10  1  0
 10 11  2  0
 11 12  1  0
 12 13  1  0
 13 14  2  0
 14 15  1  0
 15 16  2  0
 16 17  1  0
 17 18  2  0
 18 10  1  0
 18 13  1  0
M  END
$$$$
