
     RDKit          3D

 23 25  0  0  0  0  0  0  0  0999 V2000
  -31.1947  -38.5648   40.0262 N   0  0  0  0  0  0  0  0  0  0  0  0
  -30.7714  -39.2850   41.1116 C   0  0  0  0  0  0  0  0  0  0  0  0
  -30.2688  -40.3958   40.9753 O   0  0  0  0  0  0  0  0  0  0  0  0
  -31.0038  -38.7030   42.4692 C   0  0  0  0  0  0  0  0  0  0  0  0
  -31.1179  -39.6450   43.5157 C   0  0  0  0  0  0  0  0  0  0  0  0
  -31.3502  -39.2348   44.8269 C   0  0  0  0  0  0  0  0  0  0  0  0
  -31.4664  -37.8799   45.0965 C   0  0  0  0  0  0  0  0  0  0  0  0
  -31.6783  -37.4734   46.3553 F   0  0  0  0  0  0  0  0  0  0  0  0
  -31.3420  -36.9282   44.0847 C   0  0  0  0  0  0  0  0  0  0  0  0
  -31.1016  -37.3136   42.7480 C   0  0  0  0  0  0  0  0  0  0  0  0
  -30.9315  -36.3307   41.7319 N   0  0  0  0  0  0  0  0  0  0  0  0
  -32.1512  -35.4738   41.6441 C   0  0  0  0  0  0  0  0  0  0  0  0
  -32.0493  -34.4854   40.4953 C   0  0  0  0  0  0  0  0  0  0  0  0
  -33.0182  -34.2162   39.7837 O   0  0  0  0  0  0  0  0  0  0  0  0
  -30.7500  -33.7264   40.3890 C   0  0  0  0  0  0  0  0  0  0  0  0
  -29.5755  -34.6827   40.5372 C   0  0  0  0  0  0  0  0  0  0  0  0
  -29.6641  -35.5412   41.8379 C   0  0  0  0  0  0  0  0  0  0  0  0
  -28.3143  -36.1047   42.0431 N   0  0  0  0  0  0  0  0  0  0  0  0
  -27.8931  -37.1224   41.0739 C   0  0  0  0  0  0  0  0  0  0  0  0
  -26.3867  -37.3959   41.1948 C   0  0  0  0  0  0  0  0  0  0  0  0
  -25.9847  -37.7644   42.6191 C   0  0  0  0  0  0  0  0  0  0  0  0
  -26.5404  -36.7513   43.6168 C   0  0  0  0  0  0  0  0  0  0  0  0
  -28.0436  -36.5491   43.4111 C   0  0  0  0  0  0  0  0  0  0  0  0
  1  2  1  0
  2  3  2  0
  2  4  1  0
  4  5  2  0
  5  6  1  0
  6  7  2  0
  7  8  1  0
  7  9  1  0
  9 10  2  0
 10 11  1  0
 11 12  1  0
 12 13  1  0
 13 14  2  0
 13 15  1  0
 15 16  1  0
 16 17  1  0
 17 18  1  0
 18 19  1  0
 19 20  1  0
 20 21  1  0
 21 22  1  0
 22 23  1  0
 10  4  1  0
 17 11  1  0
 23 18  1  0
M  END
$$$$
