
     RDKit          3D

 19 20  0  0  0  0  0  0  0  0999 V2000
  -30.6442   14.7484    1.1259 N   0  0  0  0  0  0  0  0  0  0  0  0
  -30.1371   14.2307   -0.1395 C   0  0  0  0  0  0  0  0  0  0  0  0
  -30.1071   15.3096   -1.2117 C   0  0  0  0  0  0  0  0  0  0  0  0
  -31.4992   15.6901   -1.6720 C   0  0  0  0  0  0  0  0  0  0  0  0
  -32.2559   14.8699   -2.1956 O   0  0  0  0  0  0  0  0  0  0  0  0
  -31.9278   17.1171   -1.4821 C   0  0  0  0  0  0  0  0  0  0  0  0
  -32.3635   17.4242   -0.0764 C   0  0  0  0  0  0  0  0  0  0  0  0
  -31.5701   17.9003    0.7386 O   0  0  0  0  0  0  0  0  0  0  0  0
  -33.7937   17.1083    0.3003 C   0  0  0  0  0  0  0  0  0  0  0  0
  -33.8858   15.8025    1.0754 C   0  0  0  0  0  0  0  0  0  0  0  0
  -35.3061   15.4160    1.3401 C   0  0  0  0  0  0  0  0  0  0  0  0
  -36.0527   15.7359    2.4569 C   0  0  0  0  0  0  0  0  0  0  0  0
  -37.3030   15.1996    2.3052 N   0  0  0  0  0  0  0  0  0  0  0  0
  -37.3947   14.5346    1.1050 C   0  0  0  0  0  0  0  0  0  0  0  0
  -38.4716   13.8456    0.5341 C   0  0  0  0  0  0  0  0  0  0  0  0
  -38.2724   13.2553   -0.7175 C   0  0  0  0  0  0  0  0  0  0  0  0
  -37.0452   13.3514   -1.3691 C   0  0  0  0  0  0  0  0  0  0  0  0
  -35.9790   14.0442   -0.7842 C   0  0  0  0  0  0  0  0  0  0  0  0
  -36.1542   14.6492    0.4776 C   0  0  0  0  0  0  0  0  0  0  0  0
  1  2  1  0
  2  3  1  0
  3  4  1  0
  4  5  2  0
  4  6  1  0
  6  7  1  0
  7  8  2  0
  7  9  1  0
  9 10  1  0
 10 11  1  0
 11 12  2  0
 12 13  1  0
 13 14  1  0
 14 15  2  0
 15 16  1  0
 16 17  2  0
 17 18  1  0
 18 19  2  0
 19 11  1  0
 19 14  1  0
M  END
$$$$
