
     RDKit          3D

 30 33  0  0  0  0  0  0  0  0999 V2000
  -13.6004   -4.6280   24.8374 C   0  0  0  0  0  0  0  0  0  0  0  0
  -14.4128   -4.6542   26.0061 O   0  0  0  0  0  0  0  0  0  0  0  0
  -14.4024   -3.5338   26.7912 C   0  0  0  0  0  0  0  0  0  0  0  0
  -15.3197   -3.5448   27.8363 C   0  0  0  0  0  0  0  0  0  0  0  0
  -15.4117   -2.4618   28.7092 C   0  0  0  0  0  0  0  0  0  0  0  0
  -14.5718   -1.3427   28.5622 C   0  0  0  0  0  0  0  0  0  0  0  0
  -14.7452   -0.1822   29.5174 C   0  0  0  0  0  0  0  0  0  0  0  0
  -14.3116   -0.5115   30.8744 N   0  0  0  0  0  0  0  0  0  0  0  0
  -13.6300   -1.3277   27.5149 C   0  0  0  0  0  0  0  0  0  0  0  0
  -12.7553   -0.2626   27.3364 N   0  0  0  0  0  0  0  0  0  0  0  0
  -11.4656   -0.2743   28.0171 C   0  0  0  0  0  0  0  0  0  0  0  0
  -10.8550   -1.5601   27.8743 O   0  0  0  0  0  0  0  0  0  0  0  0
  -10.7488   -2.2298   29.1202 C   0  0  0  0  0  0  0  0  0  0  0  0
   -9.6130   -1.7284   29.8505 N   0  0  0  0  0  0  0  0  0  0  0  0
   -8.3545   -1.9749   29.4395 C   0  0  0  0  0  0  0  0  0  0  0  0
   -7.2897   -2.0453   30.2000 N   0  0  0  0  0  0  0  0  0  0  0  0
   -6.2467   -2.3153   29.3458 C   0  0  0  0  0  0  0  0  0  0  0  0
   -4.8848   -2.5073   29.6214 C   0  0  0  0  0  0  0  0  0  0  0  0
   -4.0157   -2.7784   28.5571 C   0  0  0  0  0  0  0  0  0  0  0  0
   -4.4921   -2.8539   27.2443 C   0  0  0  0  0  0  0  0  0  0  0  0
   -5.8480   -2.6657   26.9494 C   0  0  0  0  0  0  0  0  0  0  0  0
   -6.6896   -2.3977   28.0280 C   0  0  0  0  0  0  0  0  0  0  0  0
   -8.0372   -2.1637   28.1163 N   0  0  0  0  0  0  0  0  0  0  0  0
  -10.5008    0.7452   27.4031 C   0  0  0  0  0  0  0  0  0  0  0  0
  -10.4326    0.5845   25.8902 C   0  0  0  0  0  0  0  0  0  0  0  0
  -11.8046    0.7230   25.2778 C   0  0  0  0  0  0  0  0  0  0  0  0
  -11.9404    0.9199   24.0634 O   0  0  0  0  0  0  0  0  0  0  0  0
  -13.0077    0.6378   26.2218 C   0  0  0  0  0  0  0  0  0  0  0  0
  -13.2916    1.9196   26.7539 O   0  0  0  0  0  0  0  0  0  0  0  0
  -13.5682   -2.4278   26.6350 C   0  0  0  0  0  0  0  0  0  0  0  0
  1  2  1  0
  2  3  1  0
  3  4  2  0
  4  5  1  0
  5  6  2  0
  6  7  1  0
  7  8  1  0
  6  9  1  0
  9 10  1  0
 10 11  1  0
 11 12  1  0
 12 13  1  0
 13 14  1  0
 14 15  1  0
 15 16  2  0
 16 17  1  0
 17 18  2  0
 18 19  1  0
 19 20  2  0
 20 21  1  0
 21 22  2  0
 22 23  1  0
 11 24  1  0
 24 25  1  0
 25 26  1  0
 26 27  2  0
 26 28  1  0
 28 29  1  0
  9 30  2  0
 30  3  1  0
 28 10  1  0
 23 15  1  0
 22 17  1  0
M  END
$$$$
