
     RDKit          3D

 16 17  0  0  0  0  0  0  0  0999 V2000
   -7.6452    2.6205    5.2237 N   0  0  0  0  0  0  0  0  0  0  0  0
   -8.5494    2.4886    6.3659 C   0  0  0  0  0  0  0  0  0  0  0  0
   -9.9622    2.1702    5.8930 C   0  0  0  0  0  0  0  0  0  0  0  0
  -10.9240    2.0158    7.0571 C   0  0  0  0  0  0  0  0  0  0  0  0
  -10.5984    2.2765    8.2147 O   0  0  0  0  0  0  0  0  0  0  0  0
  -12.3202    1.5464    6.6953 C   0  0  0  0  0  0  0  0  0  0  0  0
  -13.2136    1.4006    7.9233 C   0  0  0  0  0  0  0  0  0  0  0  0
  -14.5884    0.9373    7.5570 C   0  0  0  0  0  0  0  0  0  0  0  0
  -15.0375   -0.3690    7.5525 C   0  0  0  0  0  0  0  0  0  0  0  0
  -16.3472   -0.3726    7.1552 N   0  0  0  0  0  0  0  0  0  0  0  0
  -16.7689    0.9094    6.8922 C   0  0  0  0  0  0  0  0  0  0  0  0
  -18.0156    1.3782    6.4606 C   0  0  0  0  0  0  0  0  0  0  0  0
  -18.1615    2.7563    6.2769 C   0  0  0  0  0  0  0  0  0  0  0  0
  -17.1023    3.6279    6.5171 C   0  0  0  0  0  0  0  0  0  0  0  0
  -15.8625    3.1418    6.9483 C   0  0  0  0  0  0  0  0  0  0  0  0
  -15.6878    1.7556    7.1401 C   0  0  0  0  0  0  0  0  0  0  0  0
  1  2  1  0
  2  3  1  0
  3  4  1  0
  4  5  2  0
  4  6  1  0
  6  7  1  0
  7  8  1  0
  8  9  2  0
  9 10  1  0
 10 11  1  0
 11 12  2  0
 12 13  1  0
 13 14  2  0
 14 15  1  0
 15 16  2  0
 16  8  1  0
 16 11  1  0
M  END
$$$$
