
     RDKit          3D

 16 17  0  0  0  0  0  0  0  0999 V2000
   19.3401    3.3277  -11.9548 N   0  0  0  0  0  0  0  0  0  0  0  0
   18.4359    3.1958  -10.8125 C   0  0  0  0  0  0  0  0  0  0  0  0
   17.0231    2.8773  -11.2855 C   0  0  0  0  0  0  0  0  0  0  0  0
   16.0612    2.7230  -10.1213 C   0  0  0  0  0  0  0  0  0  0  0  0
   16.3868    2.9837   -8.9638 O   0  0  0  0  0  0  0  0  0  0  0  0
   14.6651    2.2535  -10.4831 C   0  0  0  0  0  0  0  0  0  0  0  0
   13.7717    2.1078   -9.2551 C   0  0  0  0  0  0  0  0  0  0  0  0
   12.3968    1.6445   -9.6214 C   0  0  0  0  0  0  0  0  0  0  0  0
   11.9478    0.3382   -9.6259 C   0  0  0  0  0  0  0  0  0  0  0  0
   10.6381    0.3346  -10.0232 N   0  0  0  0  0  0  0  0  0  0  0  0
   10.2164    1.6166  -10.2862 C   0  0  0  0  0  0  0  0  0  0  0  0
    8.9697    2.0854  -10.7179 C   0  0  0  0  0  0  0  0  0  0  0  0
    8.8237    3.4634  -10.9015 C   0  0  0  0  0  0  0  0  0  0  0  0
    9.8830    4.3350  -10.6613 C   0  0  0  0  0  0  0  0  0  0  0  0
   11.1228    3.8490  -10.2301 C   0  0  0  0  0  0  0  0  0  0  0  0
   11.2975    2.4628  -10.0383 C   0  0  0  0  0  0  0  0  0  0  0  0
  1  2  1  0
  2  3  1  0
  3  4  1  0
  4  5  2  0
  4  6  1  0
  6  7  1  0
  7  8  1  0
  8  9  2  0
  9 10  1  0
 10 11  1  0
 11 12  2  0
 12 13  1  0
 13 14  2  0
 14 15  1  0
 15 16  2  0
 16  8  1  0
 16 11  1  0
M  END
$$$$
