
     RDKit          3D

 19 20  0  0  0  0  0  0  0  0999 V2000
   18.0744  -13.6390  -17.5730 N   0  0  0  0  0  0  0  0  0  0  0  0
   18.5815  -14.1566  -18.8385 C   0  0  0  0  0  0  0  0  0  0  0  0
   18.6115  -13.0777  -19.9107 C   0  0  0  0  0  0  0  0  0  0  0  0
   17.2194  -12.6972  -20.3709 C   0  0  0  0  0  0  0  0  0  0  0  0
   16.4626  -13.5174  -20.8946 O   0  0  0  0  0  0  0  0  0  0  0  0
   16.7907  -11.2702  -20.1811 C   0  0  0  0  0  0  0  0  0  0  0  0
   16.3550  -10.9631  -18.7753 C   0  0  0  0  0  0  0  0  0  0  0  0
   17.1485  -10.4871  -17.9604 O   0  0  0  0  0  0  0  0  0  0  0  0
   14.9248  -11.2790  -18.3986 C   0  0  0  0  0  0  0  0  0  0  0  0
   14.8328  -12.5849  -17.6236 C   0  0  0  0  0  0  0  0  0  0  0  0
   13.4125  -12.9713  -17.3588 C   0  0  0  0  0  0  0  0  0  0  0  0
   12.6659  -12.6514  -16.2421 C   0  0  0  0  0  0  0  0  0  0  0  0
   11.4156  -13.1877  -16.3938 N   0  0  0  0  0  0  0  0  0  0  0  0
   11.3239  -13.8528  -17.5940 C   0  0  0  0  0  0  0  0  0  0  0  0
   10.2469  -14.5417  -18.1649 C   0  0  0  0  0  0  0  0  0  0  0  0
   10.4461  -15.1320  -19.4165 C   0  0  0  0  0  0  0  0  0  0  0  0
   11.6733  -15.0359  -20.0681 C   0  0  0  0  0  0  0  0  0  0  0  0
   12.7395  -14.3432  -19.4832 C   0  0  0  0  0  0  0  0  0  0  0  0
   12.5644  -13.7382  -18.2214 C   0  0  0  0  0  0  0  0  0  0  0  0
  1  2  1  0
  2  3  1  0
  3  4  1  0
  4  5  2  0
  4  6  1  0
  6  7  1  0
  7  8  2  0
  7  9  1  0
  9 10  1  0
 10 11  1  0
 11 12  2  0
 12 13  1  0
 13 14  1  0
 14 15  2  0
 15 16  1  0
 16 17  2  0
 17 18  1  0
 18 19  2  0
 19 11  1  0
 19 14  1  0
M  END
$$$$
