
     RDKit          3D

 19 20  0  0  0  0  0  0  0  0999 V2000
    5.9393    1.9015  -19.8513 N   0  0  0  0  0  0  0  0  0  0  0  0
    6.4464    1.3839  -21.1168 C   0  0  0  0  0  0  0  0  0  0  0  0
    6.4764    2.4628  -22.1890 C   0  0  0  0  0  0  0  0  0  0  0  0
    5.0843    2.8433  -22.6492 C   0  0  0  0  0  0  0  0  0  0  0  0
    4.3276    2.0231  -23.1729 O   0  0  0  0  0  0  0  0  0  0  0  0
    4.6557    4.2703  -22.4594 C   0  0  0  0  0  0  0  0  0  0  0  0
    4.2200    4.5774  -21.0536 C   0  0  0  0  0  0  0  0  0  0  0  0
    5.0134    5.0534  -20.2387 O   0  0  0  0  0  0  0  0  0  0  0  0
    2.7898    4.2615  -20.6769 C   0  0  0  0  0  0  0  0  0  0  0  0
    2.6977    2.9557  -19.9019 C   0  0  0  0  0  0  0  0  0  0  0  0
    1.2774    2.5692  -19.6371 C   0  0  0  0  0  0  0  0  0  0  0  0
    0.5308    2.8891  -18.5204 C   0  0  0  0  0  0  0  0  0  0  0  0
   -0.7195    2.3528  -18.6721 N   0  0  0  0  0  0  0  0  0  0  0  0
   -0.8112    1.6878  -19.8723 C   0  0  0  0  0  0  0  0  0  0  0  0
   -1.8881    0.9988  -20.4432 C   0  0  0  0  0  0  0  0  0  0  0  0
   -1.6889    0.4085  -21.6948 C   0  0  0  0  0  0  0  0  0  0  0  0
   -0.4617    0.5046  -22.3464 C   0  0  0  0  0  0  0  0  0  0  0  0
    0.6045    1.1974  -21.7615 C   0  0  0  0  0  0  0  0  0  0  0  0
    0.4293    1.8023  -20.4997 C   0  0  0  0  0  0  0  0  0  0  0  0
  1  2  1  0
  2  3  1  0
  3  4  1  0
  4  5  2  0
  4  6  1  0
  6  7  1  0
  7  8  2  0
  7  9  1  0
  9 10  1  0
 10 11  1  0
 11 12  2  0
 12 13  1  0
 13 14  1  0
 14 15  2  0
 15 16  1  0
 16 17  2  0
 17 18  1  0
 18 19  2  0
 19 11  1  0
 19 14  1  0
M  END
$$$$
