
     RDKit          3D

 25 27  0  0  0  0  0  0  0  0999 V2000
   10.9062   -4.3907  -33.9286 N   0  0  0  0  0  0  0  0  0  0  0  0
   10.9250   -5.6629  -33.2043 C   0  0  0  0  0  0  0  0  0  0  0  0
   10.5778   -6.8658  -34.0941 C   0  0  0  0  0  0  0  0  0  0  0  0
    9.0993   -7.0217  -34.3616 C   0  0  0  0  0  0  0  0  0  0  0  0
    8.4558   -6.2199  -35.3118 C   0  0  0  0  0  0  0  0  0  0  0  0
    7.0858   -6.3605  -35.5607 C   0  0  0  0  0  0  0  0  0  0  0  0
    6.3399   -7.3062  -34.8590 C   0  0  0  0  0  0  0  0  0  0  0  0
    5.0020   -7.5472  -35.0042 O   0  0  0  0  0  0  0  0  0  0  0  0
    4.2945   -6.7308  -35.9247 C   0  0  0  0  0  0  0  0  0  0  0  0
    2.8016   -7.0543  -35.9895 C   0  0  0  0  0  0  0  0  0  0  0  0
    2.1369   -6.6587  -36.9566 O   0  0  0  0  0  0  0  0  0  0  0  0
    2.2017   -7.9168  -34.8566 C   0  0  0  0  0  0  0  0  0  0  0  0
    2.4188   -9.3655  -35.3572 C   0  0  0  0  0  0  0  0  0  0  0  0
    1.7175  -10.4066  -34.5063 C   0  0  0  0  0  0  0  0  0  0  0  0
    0.2473  -10.0553  -34.4103 C   0  0  0  0  0  0  0  0  0  0  0  0
    0.0823   -8.6536  -33.8378 C   0  0  0  0  0  0  0  0  0  0  0  0
    0.7607   -7.5989  -34.6230 N   0  0  0  0  0  0  0  0  0  0  0  0
    0.4968   -6.2884  -33.9692 C   0  0  0  0  0  0  0  0  0  0  0  0
   -0.9339   -5.8075  -34.3024 C   0  0  0  0  0  0  0  0  0  0  0  0
   -0.9590   -4.2964  -34.0637 C   0  0  0  0  0  0  0  0  0  0  0  0
    0.4637   -3.9030  -33.6934 C   0  0  0  0  0  0  0  0  0  0  0  0
    1.3282   -5.0149  -34.2916 C   0  0  0  0  0  0  0  0  0  0  0  0
    2.6703   -4.9925  -33.7065 N   0  0  0  0  0  0  0  0  0  0  0  0
    6.9768   -8.1072  -33.9092 C   0  0  0  0  0  0  0  0  0  0  0  0
    8.3442   -7.9673  -33.6585 C   0  0  0  0  0  0  0  0  0  0  0  0
  1  2  1  0
  2  3  1  0
  3  4  1  0
  4  5  2  0
  5  6  1  0
  6  7  2  0
  7  8  1  0
  8  9  1  0
  9 10  1  0
 10 11  2  0
 10 12  1  0
 12 13  1  0
 13 14  1  0
 14 15  1  0
 15 16  1  0
 16 17  1  0
 17 18  1  0
 18 19  1  0
 19 20  1  0
 20 21  1  0
 21 22  1  0
 22 23  1  0
  7 24  1  0
 24 25  2  0
 25  4  1  0
 17 12  1  0
 22 18  1  0
M  END
$$$$
