
     RDKit          3D

 28 31  0  0  0  0  0  0  0  0999 V2000
   31.7310    3.4771  -38.8134 N   0  0  0  0  0  0  0  0  0  0  0  0
   32.9504    3.7323  -39.5790 C   0  0  0  0  0  0  0  0  0  0  0  0
   34.1645    3.1135  -38.9254 C   0  0  0  0  0  0  0  0  0  0  0  0
   34.3982    1.7346  -39.1064 C   0  0  0  0  0  0  0  0  0  0  0  0
   35.5014    1.1094  -38.5265 C   0  0  0  0  0  0  0  0  0  0  0  0
   36.3692    1.8605  -37.7486 C   0  0  0  0  0  0  0  0  0  0  0  0
   37.4789    1.3016  -37.1808 O   0  0  0  0  0  0  0  0  0  0  0  0
   36.1488    3.2175  -37.5395 C   0  0  0  0  0  0  0  0  0  0  0  0
   35.0609    3.8727  -38.1400 C   0  0  0  0  0  0  0  0  0  0  0  0
   34.8144    5.2481  -37.9297 N   0  0  0  0  0  0  0  0  0  0  0  0
   34.1803    5.3987  -36.5880 C   0  0  0  0  0  0  0  0  0  0  0  0
   33.9677    6.8642  -36.2566 C   0  0  0  0  0  0  0  0  0  0  0  0
   33.7154    7.2540  -35.1161 O   0  0  0  0  0  0  0  0  0  0  0  0
   34.0202    7.8160  -37.4189 C   0  0  0  0  0  0  0  0  0  0  0  0
   35.3057    7.6329  -38.2184 C   0  0  0  0  0  0  0  0  0  0  0  0
   35.9254    6.2084  -38.1699 C   0  0  0  0  0  0  0  0  0  0  0  0
   36.6957    5.9980  -39.5183 C   0  0  0  0  0  0  0  0  0  0  0  0
   37.7297    4.9519  -39.5543 N   0  0  0  0  0  0  0  0  0  0  0  0
   38.9362    5.3281  -38.8146 C   0  0  0  0  0  0  0  0  0  0  0  0
   39.9749    4.2627  -38.9421 C   0  0  0  0  0  0  0  0  0  0  0  0
   41.1744    4.3823  -39.4778 N   0  0  0  0  0  0  0  0  0  0  0  0
   41.7550    3.1429  -39.3583 C   0  0  0  0  0  0  0  0  0  0  0  0
   43.0260    2.7051  -39.7578 C   0  0  0  0  0  0  0  0  0  0  0  0
   43.3840    1.3719  -39.5182 C   0  0  0  0  0  0  0  0  0  0  0  0
   42.4946    0.4932  -38.8940 C   0  0  0  0  0  0  0  0  0  0  0  0
   41.2216    0.9122  -38.4893 C   0  0  0  0  0  0  0  0  0  0  0  0
   40.8922    2.2456  -38.7402 C   0  0  0  0  0  0  0  0  0  0  0  0
   39.7633    2.9814  -38.4901 N   0  0  0  0  0  0  0  0  0  0  0  0
  1  2  1  0
  2  3  1  0
  3  4  2  0
  4  5  1  0
  5  6  2  0
  6  7  1  0
  6  8  1  0
  8  9  2  0
  9 10  1  0
 10 11  1  0
 11 12  1  0
 12 13  2  0
 12 14  1  0
 14 15  1  0
 15 16  1  0
 16 17  1  0
 17 18  1  0
 18 19  1  0
 19 20  1  0
 20 21  2  0
 21 22  1  0
 22 23  2  0
 23 24  1  0
 24 25  2  0
 25 26  1  0
 26 27  2  0
 27 28  1  0
  9  3  1  0
 16 10  1  0
 28 20  1  0
 27 22  1  0
M  END
$$$$
