
     RDKit          3D

 15 16  0  0  0  0  0  0  0  0999 V2000
   16.2465    3.5332   -1.9009 N   0  0  0  0  0  0  0  0  0  0  0  0
   15.1117    3.1755   -2.7436 C   0  0  0  0  0  0  0  0  0  0  0  0
   15.1835    1.7082   -3.1661 C   0  0  0  0  0  0  0  0  0  0  0  0
   14.0459    1.3147   -4.1065 C   0  0  0  0  0  0  0  0  0  0  0  0
   12.7120    1.2505   -3.3811 C   0  0  0  0  0  0  0  0  0  0  0  0
   12.5133    0.3310   -2.5842 O   0  0  0  0  0  0  0  0  0  0  0  0
   11.6989    2.2847   -3.6208 C   0  0  0  0  0  0  0  0  0  0  0  0
   11.8272    3.4028   -4.4286 C   0  0  0  0  0  0  0  0  0  0  0  0
   10.6604    4.1193   -4.3744 N   0  0  0  0  0  0  0  0  0  0  0  0
    9.7584    3.4975   -3.5469 C   0  0  0  0  0  0  0  0  0  0  0  0
    8.4536    3.8685   -3.1988 C   0  0  0  0  0  0  0  0  0  0  0  0
    7.7545    3.0368   -2.3201 C   0  0  0  0  0  0  0  0  0  0  0  0
    8.3397    1.8812   -1.8112 C   0  0  0  0  0  0  0  0  0  0  0  0
    9.6451    1.5265   -2.1702 C   0  0  0  0  0  0  0  0  0  0  0  0
   10.3771    2.3464   -3.0567 C   0  0  0  0  0  0  0  0  0  0  0  0
  1  2  1  0
  2  3  1  0
  3  4  1  0
  4  5  1  0
  5  6  2  0
  5  7  1  0
  7  8  2  0
  8  9  1  0
  9 10  1  0
 10 11  2  0
 11 12  1  0
 12 13  2  0
 13 14  1  0
 14 15  2  0
 15  7  1  0
 15 10  1  0
M  END
$$$$
