
     RDKit          3D

 31 34  0  0  0  0  0  0  0  0999 V2000
  -33.9717   -5.3910   25.4846 N   0  0  0  0  0  0  0  0  0  0  0  0
  -33.0663   -6.0962   26.3233 C   0  0  0  0  0  0  0  0  0  0  0  0
  -32.4326   -5.4139   27.3602 C   0  0  0  0  0  0  0  0  0  0  0  0
  -31.5622   -6.1159   28.1702 C   0  0  0  0  0  0  0  0  0  0  0  0
  -31.2746   -7.4205   28.0065 N   0  0  0  0  0  0  0  0  0  0  0  0
  -31.8705   -8.0451   26.9565 C   0  0  0  0  0  0  0  0  0  0  0  0
  -32.7420   -7.4453   26.0473 C   0  0  0  0  0  0  0  0  0  0  0  0
  -33.3323   -8.0910   24.9469 N   0  0  0  0  0  0  0  0  0  0  0  0
  -32.8021   -7.6417   23.6449 C   0  0  0  0  0  0  0  0  0  0  0  0
  -31.6022   -8.4853   23.2234 C   0  0  0  0  0  0  0  0  0  0  0  0
  -31.9664   -9.9650   23.1784 C   0  0  0  0  0  0  0  0  0  0  0  0
  -32.5536  -10.4215   24.5088 C   0  0  0  0  0  0  0  0  0  0  0  0
  -33.7018   -9.5150   24.9795 C   0  0  0  0  0  0  0  0  0  0  0  0
  -34.1119   -9.9441   26.2766 O   0  0  0  0  0  0  0  0  0  0  0  0
  -35.3544   -9.3842   26.6579 C   0  0  0  0  0  0  0  0  0  0  0  0
  -36.3275  -10.4356   26.5136 N   0  0  0  0  0  0  0  0  0  0  0  0
  -37.8620  -10.0981   25.9550 S   0  0  0  0  0  0  0  0  0  0  0  0
  -37.6917   -9.0784   24.9432 O   0  0  0  0  0  0  0  0  0  0  0  0
  -38.4557  -11.3870   25.6728 O   0  0  0  0  0  0  0  0  0  0  0  0
  -38.7128   -9.4150   27.3522 C   0  0  0  0  0  0  0  0  0  0  0  0
  -38.1705   -9.5678   28.6339 C   0  0  0  0  0  0  0  0  0  0  0  0
  -38.8285   -8.9826   29.6981 C   0  0  0  0  0  0  0  0  0  0  0  0
  -39.9697   -8.2814   29.5705 N   0  0  0  0  0  0  0  0  0  0  0  0
  -40.4836   -8.1814   28.3216 C   0  0  0  0  0  0  0  0  0  0  0  0
  -39.9203   -8.7296   27.1658 C   0  0  0  0  0  0  0  0  0  0  0  0
  -40.5335   -8.6132   25.9151 N   0  0  0  0  0  0  0  0  0  0  0  0
  -40.4584   -7.2717   25.3086 C   0  0  0  0  0  0  0  0  0  0  0  0
  -41.8489   -6.6720   25.1151 C   0  0  0  0  0  0  0  0  0  0  0  0
  -42.7231   -7.5655   24.2317 C   0  0  0  0  0  0  0  0  0  0  0  0
  -42.4390   -9.0567   24.4325 C   0  0  0  0  0  0  0  0  0  0  0  0
  -41.8085   -9.3384   25.7926 C   0  0  0  0  0  0  0  0  0  0  0  0
  1  2  1  0
  2  3  2  0
  3  4  1  0
  4  5  2  0
  5  6  1  0
  6  7  2  0
  7  8  1  0
  8  9  1  0
  9 10  1  0
 10 11  1  0
 11 12  1  0
 12 13  1  0
 13 14  1  0
 14 15  1  0
 15 16  1  0
 16 17  1  0
 17 18  2  0
 17 19  2  0
 17 20  1  0
 20 21  2  0
 21 22  1  0
 22 23  2  0
 23 24  1  0
 24 25  2  0
 25 26  1  0
 26 27  1  0
 27 28  1  0
 28 29  1  0
 29 30  1  0
 30 31  1  0
  7  2  1  0
 13  8  1  0
 25 20  1  0
 31 26  1  0
M  END
$$$$
