
     RDKit          3D

 16 17  0  0  0  0  0  0  0  0999 V2000
   31.8382   26.9726   -4.3043 N   0  0  0  0  0  0  0  0  0  0  0  0
   30.9340   26.8407   -3.1621 C   0  0  0  0  0  0  0  0  0  0  0  0
   29.5212   26.5223   -3.6350 C   0  0  0  0  0  0  0  0  0  0  0  0
   28.5594   26.3679   -2.4709 C   0  0  0  0  0  0  0  0  0  0  0  0
   28.8850   26.6286   -1.3133 O   0  0  0  0  0  0  0  0  0  0  0  0
   27.1632   25.8985   -2.8327 C   0  0  0  0  0  0  0  0  0  0  0  0
   26.2698   25.7527   -1.6047 C   0  0  0  0  0  0  0  0  0  0  0  0
   24.8950   25.2894   -1.9710 C   0  0  0  0  0  0  0  0  0  0  0  0
   24.4459   23.9831   -1.9755 C   0  0  0  0  0  0  0  0  0  0  0  0
   23.1362   23.9795   -2.3728 N   0  0  0  0  0  0  0  0  0  0  0  0
   22.7145   25.2615   -2.6358 C   0  0  0  0  0  0  0  0  0  0  0  0
   21.4678   25.7303   -3.0674 C   0  0  0  0  0  0  0  0  0  0  0  0
   21.3219   27.1084   -3.2511 C   0  0  0  0  0  0  0  0  0  0  0  0
   22.3811   27.9800   -3.0109 C   0  0  0  0  0  0  0  0  0  0  0  0
   23.6209   27.4939   -2.5797 C   0  0  0  0  0  0  0  0  0  0  0  0
   23.7956   26.1077   -2.3879 C   0  0  0  0  0  0  0  0  0  0  0  0
  1  2  1  0
  2  3  1  0
  3  4  1  0
  4  5  2  0
  4  6  1  0
  6  7  1  0
  7  8  1  0
  8  9  2  0
  9 10  1  0
 10 11  1  0
 11 12  2  0
 12 13  1  0
 13 14  2  0
 14 15  1  0
 15 16  2  0
 16  8  1  0
 16 11  1  0
M  END
$$$$
