
     RDKit          3D

 15 16  0  0  0  0  0  0  0  0999 V2000
   -8.0947    0.0051    1.5509 N   0  0  0  0  0  0  0  0  0  0  0  0
   -9.2295   -0.3525    0.7082 C   0  0  0  0  0  0  0  0  0  0  0  0
   -9.1578   -1.8198    0.2856 C   0  0  0  0  0  0  0  0  0  0  0  0
  -10.2954   -2.2134   -0.6548 C   0  0  0  0  0  0  0  0  0  0  0  0
  -11.6292   -2.2775    0.0707 C   0  0  0  0  0  0  0  0  0  0  0  0
  -11.8280   -3.1970    0.8676 O   0  0  0  0  0  0  0  0  0  0  0  0
  -12.6424   -1.2433   -0.1691 C   0  0  0  0  0  0  0  0  0  0  0  0
  -12.5141   -0.1252   -0.9769 C   0  0  0  0  0  0  0  0  0  0  0  0
  -13.6809    0.5913   -0.9226 N   0  0  0  0  0  0  0  0  0  0  0  0
  -14.5829   -0.0305   -0.0952 C   0  0  0  0  0  0  0  0  0  0  0  0
  -15.8877    0.3405    0.2529 C   0  0  0  0  0  0  0  0  0  0  0  0
  -16.5868   -0.4913    1.1316 C   0  0  0  0  0  0  0  0  0  0  0  0
  -16.0016   -1.6468    1.6405 C   0  0  0  0  0  0  0  0  0  0  0  0
  -14.6962   -2.0015    1.2815 C   0  0  0  0  0  0  0  0  0  0  0  0
  -13.9642   -1.1816    0.3950 C   0  0  0  0  0  0  0  0  0  0  0  0
  1  2  1  0
  2  3  1  0
  3  4  1  0
  4  5  1  0
  5  6  2  0
  5  7  1  0
  7  8  2  0
  8  9  1  0
  9 10  1  0
 10 11  2  0
 11 12  1  0
 12 13  2  0
 13 14  1  0
 14 15  2  0
 15  7  1  0
 15 10  1  0
M  END
$$$$
