
     RDKit          3D

 16 17  0  0  0  0  0  0  0  0999 V2000
  -21.3273   22.1449   27.7693 N   0  0  0  0  0  0  0  0  0  0  0  0
  -22.2315   22.0130   28.9115 C   0  0  0  0  0  0  0  0  0  0  0  0
  -23.6443   21.6946   28.4386 C   0  0  0  0  0  0  0  0  0  0  0  0
  -24.6061   21.5402   29.6027 C   0  0  0  0  0  0  0  0  0  0  0  0
  -24.2805   21.8009   30.7603 O   0  0  0  0  0  0  0  0  0  0  0  0
  -26.0023   21.0708   29.2410 C   0  0  0  0  0  0  0  0  0  0  0  0
  -26.8957   20.9250   30.4689 C   0  0  0  0  0  0  0  0  0  0  0  0
  -28.2705   20.4617   30.1026 C   0  0  0  0  0  0  0  0  0  0  0  0
  -28.7196   19.1554   30.0982 C   0  0  0  0  0  0  0  0  0  0  0  0
  -30.0293   19.1518   29.7009 N   0  0  0  0  0  0  0  0  0  0  0  0
  -30.4509   20.4338   29.4379 C   0  0  0  0  0  0  0  0  0  0  0  0
  -31.6977   20.9026   29.0062 C   0  0  0  0  0  0  0  0  0  0  0  0
  -31.8436   22.2807   28.8225 C   0  0  0  0  0  0  0  0  0  0  0  0
  -30.7844   23.1523   29.0628 C   0  0  0  0  0  0  0  0  0  0  0  0
  -29.5446   22.6662   29.4940 C   0  0  0  0  0  0  0  0  0  0  0  0
  -29.3698   21.2800   29.6857 C   0  0  0  0  0  0  0  0  0  0  0  0
  1  2  1  0
  2  3  1  0
  3  4  1  0
  4  5  2  0
  4  6  1  0
  6  7  1  0
  7  8  1  0
  8  9  2  0
  9 10  1  0
 10 11  1  0
 11 12  2  0
 12 13  1  0
 13 14  2  0
 14 15  1  0
 15 16  2  0
 16  8  1  0
 16 11  1  0
M  END
$$$$
