
     RDKit          3D

 19 20  0  0  0  0  0  0  0  0999 V2000
   -1.4483  -12.6049   -3.5711 N   0  0  0  0  0  0  0  0  0  0  0  0
   -2.0876  -11.2901   -3.5827 C   0  0  0  0  0  0  0  0  0  0  0  0
   -2.7375  -10.9431   -2.2506 C   0  0  0  0  0  0  0  0  0  0  0  0
   -4.0667  -11.6444   -2.0577 C   0  0  0  0  0  0  0  0  0  0  0  0
   -4.2247  -12.4613   -1.1472 O   0  0  0  0  0  0  0  0  0  0  0  0
   -5.1800  -11.3152   -3.0379 C   0  0  0  0  0  0  0  0  0  0  0  0
   -6.5575  -11.5097   -2.4186 C   0  0  0  0  0  0  0  0  0  0  0  0
   -6.8272  -10.5133   -1.3046 C   0  0  0  0  0  0  0  0  0  0  0  0
   -6.0937   -9.5400   -1.1165 O   0  0  0  0  0  0  0  0  0  0  0  0
   -8.0611  -10.7581   -0.4562 C   0  0  0  0  0  0  0  0  0  0  0  0
   -9.3114  -10.4745   -1.2178 C   0  0  0  0  0  0  0  0  0  0  0  0
   -9.8509   -9.2274   -1.4594 C   0  0  0  0  0  0  0  0  0  0  0  0
  -10.9905   -9.3866   -2.1989 N   0  0  0  0  0  0  0  0  0  0  0  0
  -11.2040  -10.7151   -2.4622 C   0  0  0  0  0  0  0  0  0  0  0  0
  -12.2292  -11.3336   -3.1874 C   0  0  0  0  0  0  0  0  0  0  0  0
  -12.1947  -12.7293   -3.3023 C   0  0  0  0  0  0  0  0  0  0  0  0
  -11.1746  -13.4696   -2.7134 C   0  0  0  0  0  0  0  0  0  0  0  0
  -10.1600  -12.8350   -1.9864 C   0  0  0  0  0  0  0  0  0  0  0  0
  -10.1704  -11.4276   -1.8562 C   0  0  0  0  0  0  0  0  0  0  0  0
  1  2  1  0
  2  3  1  0
  3  4  1  0
  4  5  2  0
  4  6  1  0
  6  7  1  0
  7  8  1  0
  8  9  2  0
  8 10  1  0
 10 11  1  0
 11 12  2  0
 12 13  1  0
 13 14  1  0
 14 15  2  0
 15 16  1  0
 16 17  2  0
 17 18  1  0
 18 19  2  0
 19 11  1  0
 19 14  1  0
M  END
$$$$
