
     RDKit          3D

 16 17  0  0  0  0  0  0  0  0999 V2000
  -23.5771   -8.7881   29.8358 N   0  0  0  0  0  0  0  0  0  0  0  0
  -23.0155   -9.8789   30.6210 C   0  0  0  0  0  0  0  0  0  0  0  0
  -24.1119  -10.5666   31.4315 C   0  0  0  0  0  0  0  0  0  0  0  0
  -23.5294  -11.6487   32.3316 C   0  0  0  0  0  0  0  0  0  0  0  0
  -24.5969  -12.5373   32.9397 C   0  0  0  0  0  0  0  0  0  0  0  0
  -24.6456  -13.7369   32.6527 O   0  0  0  0  0  0  0  0  0  0  0  0
  -25.5726  -11.9130   33.9205 C   0  0  0  0  0  0  0  0  0  0  0  0
  -26.8784  -11.5696   33.2825 C   0  0  0  0  0  0  0  0  0  0  0  0
  -27.7453  -12.4555   32.6704 C   0  0  0  0  0  0  0  0  0  0  0  0
  -28.8302  -11.7591   32.2158 N   0  0  0  0  0  0  0  0  0  0  0  0
  -28.7027  -10.4264   32.5270 C   0  0  0  0  0  0  0  0  0  0  0  0
  -29.5649   -9.3550   32.2643 C   0  0  0  0  0  0  0  0  0  0  0  0
  -29.1770   -8.0870   32.7051 C   0  0  0  0  0  0  0  0  0  0  0  0
  -27.9753   -7.9015   33.3828 C   0  0  0  0  0  0  0  0  0  0  0  0
  -27.1256   -8.9843   33.6384 C   0  0  0  0  0  0  0  0  0  0  0  0
  -27.4902  -10.2754   33.2018 C   0  0  0  0  0  0  0  0  0  0  0  0
  1  2  1  0
  2  3  1  0
  3  4  1  0
  4  5  1  0
  5  6  2  0
  5  7  1  0
  7  8  1  0
  8  9  2  0
  9 10  1  0
 10 11  1  0
 11 12  2  0
 12 13  1  0
 13 14  2  0
 14 15  1  0
 15 16  2  0
 16  8  1  0
 16 11  1  0
M  END
$$$$
