
     RDKit          3D

 17 18  0  0  0  0  0  0  0  0999 V2000
   16.6120  -25.1925  -39.5371 C   0  0  0  0  0  0  0  0  0  0  0  0
   15.9285  -23.9802  -39.2459 O   0  0  0  0  0  0  0  0  0  0  0  0
   16.7042  -22.8952  -38.9451 C   0  0  0  0  0  0  0  0  0  0  0  0
   16.0032  -21.7261  -38.6856 C   0  0  0  0  0  0  0  0  0  0  0  0
   16.6830  -20.5505  -38.3603 C   0  0  0  0  0  0  0  0  0  0  0  0
   18.0880  -20.5068  -38.2725 C   0  0  0  0  0  0  0  0  0  0  0  0
   18.7788  -19.2085  -37.8953 C   0  0  0  0  0  0  0  0  0  0  0  0
   18.0049  -18.1867  -37.0379 C   0  0  0  0  0  0  0  0  0  0  0  0
   17.0965  -17.3406  -37.8138 N   0  0  0  0  0  0  0  0  0  0  0  0
   18.8099  -21.6859  -38.5718 C   0  0  0  0  0  0  0  0  0  0  0  0
   20.2058  -21.8176  -38.5804 N   0  0  0  0  0  0  0  0  0  0  0  0
   20.9741  -20.9145  -39.4377 C   0  0  0  0  0  0  0  0  0  0  0  0
   22.3492  -21.5340  -39.6944 C   0  0  0  0  0  0  0  0  0  0  0  0
   23.0589  -21.8565  -38.3788 C   0  0  0  0  0  0  0  0  0  0  0  0
   22.1828  -22.7344  -37.4849 C   0  0  0  0  0  0  0  0  0  0  0  0
   20.7987  -22.1174  -37.2737 C   0  0  0  0  0  0  0  0  0  0  0  0
   18.0954  -22.8656  -38.8872 C   0  0  0  0  0  0  0  0  0  0  0  0
  1  2  1  0
  2  3  1  0
  3  4  2  0
  4  5  1  0
  5  6  2  0
  6  7  1  0
  7  8  1  0
  8  9  1  0
  6 10  1  0
 10 11  1  0
 11 12  1  0
 12 13  1  0
 13 14  1  0
 14 15  1  0
 15 16  1  0
 10 17  2  0
 17  3  1  0
 16 11  1  0
M  END
$$$$
