
     RDKit          3D

 28 31  0  0  0  0  0  0  0  0999 V2000
    4.3266    5.5569    6.8898 N   0  0  0  0  0  0  0  0  0  0  0  0
    5.5460    5.8121    6.1241 C   0  0  0  0  0  0  0  0  0  0  0  0
    6.7601    5.1933    6.7777 C   0  0  0  0  0  0  0  0  0  0  0  0
    6.9938    3.8144    6.5968 C   0  0  0  0  0  0  0  0  0  0  0  0
    8.0970    3.1891    7.1766 C   0  0  0  0  0  0  0  0  0  0  0  0
    8.9649    3.9402    7.9545 C   0  0  0  0  0  0  0  0  0  0  0  0
   10.0746    3.3814    8.5223 O   0  0  0  0  0  0  0  0  0  0  0  0
    8.7444    5.2973    8.1636 C   0  0  0  0  0  0  0  0  0  0  0  0
    7.6565    5.9525    7.5631 C   0  0  0  0  0  0  0  0  0  0  0  0
    7.4100    7.3278    7.7735 N   0  0  0  0  0  0  0  0  0  0  0  0
    6.7760    7.4785    9.1151 C   0  0  0  0  0  0  0  0  0  0  0  0
    6.5633    8.9440    9.4465 C   0  0  0  0  0  0  0  0  0  0  0  0
    6.3110    9.3338   10.5870 O   0  0  0  0  0  0  0  0  0  0  0  0
    6.6159    9.8958    8.2842 C   0  0  0  0  0  0  0  0  0  0  0  0
    7.9013    9.7127    7.4848 C   0  0  0  0  0  0  0  0  0  0  0  0
    8.5210    8.2882    7.5332 C   0  0  0  0  0  0  0  0  0  0  0  0
    9.2913    8.0778    6.1848 C   0  0  0  0  0  0  0  0  0  0  0  0
   10.3254    7.0317    6.1488 N   0  0  0  0  0  0  0  0  0  0  0  0
   11.5318    7.4079    6.8885 C   0  0  0  0  0  0  0  0  0  0  0  0
   12.5706    6.3425    6.7610 C   0  0  0  0  0  0  0  0  0  0  0  0
   13.7700    6.4621    6.2253 N   0  0  0  0  0  0  0  0  0  0  0  0
   14.3507    5.2227    6.3448 C   0  0  0  0  0  0  0  0  0  0  0  0
   15.6217    4.7849    5.9454 C   0  0  0  0  0  0  0  0  0  0  0  0
   15.9796    3.4517    6.1849 C   0  0  0  0  0  0  0  0  0  0  0  0
   15.0902    2.5730    6.8091 C   0  0  0  0  0  0  0  0  0  0  0  0
   13.8172    2.9919    7.2138 C   0  0  0  0  0  0  0  0  0  0  0  0
   13.4879    4.3253    6.9629 C   0  0  0  0  0  0  0  0  0  0  0  0
   12.3589    5.0612    7.2130 N   0  0  0  0  0  0  0  0  0  0  0  0
  1  2  1  0
  2  3  1  0
  3  4  2  0
  4  5  1  0
  5  6  2  0
  6  7  1  0
  6  8  1  0
  8  9  2  0
  9 10  1  0
 10 11  1  0
 11 12  1  0
 12 13  2  0
 12 14  1  0
 14 15  1  0
 15 16  1  0
 16 17  1  0
 17 18  1  0
 18 19  1  0
 19 20  1  0
 20 21  2  0
 21 22  1  0
 22 23  2  0
 23 24  1  0
 24 25  2  0
 25 26  1  0
 26 27  2  0
 27 28  1  0
  9  3  1  0
 16 10  1  0
 28 20  1  0
 27 22  1  0
M  END
$$$$
