
     RDKit          3D

 19 20  0  0  0  0  0  0  0  0999 V2000
   -5.3904  -16.8672    9.3222 N   0  0  0  0  0  0  0  0  0  0  0  0
   -4.8834  -17.3848    8.0567 C   0  0  0  0  0  0  0  0  0  0  0  0
   -4.8533  -16.3059    6.9846 C   0  0  0  0  0  0  0  0  0  0  0  0
   -6.2454  -15.9254    6.5243 C   0  0  0  0  0  0  0  0  0  0  0  0
   -7.0022  -16.7457    6.0006 O   0  0  0  0  0  0  0  0  0  0  0  0
   -6.6741  -14.4984    6.7142 C   0  0  0  0  0  0  0  0  0  0  0  0
   -7.1098  -14.1913    8.1199 C   0  0  0  0  0  0  0  0  0  0  0  0
   -6.3163  -13.7153    8.9349 O   0  0  0  0  0  0  0  0  0  0  0  0
   -8.5400  -14.5072    8.4966 C   0  0  0  0  0  0  0  0  0  0  0  0
   -8.6320  -15.8131    9.2717 C   0  0  0  0  0  0  0  0  0  0  0  0
  -10.0523  -16.1995    9.5364 C   0  0  0  0  0  0  0  0  0  0  0  0
  -10.7989  -15.8796   10.6531 C   0  0  0  0  0  0  0  0  0  0  0  0
  -12.0492  -16.4159   10.5015 N   0  0  0  0  0  0  0  0  0  0  0  0
  -12.1409  -17.0810    9.3013 C   0  0  0  0  0  0  0  0  0  0  0  0
  -13.2179  -17.7699    8.7304 C   0  0  0  0  0  0  0  0  0  0  0  0
  -13.0187  -18.3602    7.4787 C   0  0  0  0  0  0  0  0  0  0  0  0
  -11.7915  -18.2642    6.8271 C   0  0  0  0  0  0  0  0  0  0  0  0
  -10.7253  -17.5714    7.4121 C   0  0  0  0  0  0  0  0  0  0  0  0
  -10.9004  -16.9664    8.6739 C   0  0  0  0  0  0  0  0  0  0  0  0
  1  2  1  0
  2  3  1  0
  3  4  1  0
  4  5  2  0
  4  6  1  0
  6  7  1  0
  7  8  2  0
  7  9  1  0
  9 10  1  0
 10 11  1  0
 11 12  2  0
 12 13  1  0
 13 14  1  0
 14 15  2  0
 15 16  1  0
 16 17  2  0
 17 18  1  0
 18 19  2  0
 19 11  1  0
 19 14  1  0
M  END
$$$$
