
     RDKit          3D

 19 20  0  0  0  0  0  0  0  0999 V2000
    3.5122   -7.2538   -2.6699 N   0  0  0  0  0  0  0  0  0  0  0  0
    4.0192   -7.7715   -3.9353 C   0  0  0  0  0  0  0  0  0  0  0  0
    4.0492   -6.6925   -5.0075 C   0  0  0  0  0  0  0  0  0  0  0  0
    2.6572   -6.3121   -5.4677 C   0  0  0  0  0  0  0  0  0  0  0  0
    1.9004   -7.1323   -5.9914 O   0  0  0  0  0  0  0  0  0  0  0  0
    2.2285   -4.8851   -5.2779 C   0  0  0  0  0  0  0  0  0  0  0  0
    1.7928   -4.5780   -3.8722 C   0  0  0  0  0  0  0  0  0  0  0  0
    2.5863   -4.1019   -3.0572 O   0  0  0  0  0  0  0  0  0  0  0  0
    0.3626   -4.8939   -3.4955 C   0  0  0  0  0  0  0  0  0  0  0  0
    0.2705   -6.1997   -2.7204 C   0  0  0  0  0  0  0  0  0  0  0  0
   -1.1497   -6.5862   -2.4557 C   0  0  0  0  0  0  0  0  0  0  0  0
   -1.8964   -6.2663   -1.3389 C   0  0  0  0  0  0  0  0  0  0  0  0
   -3.1467   -6.8026   -1.4906 N   0  0  0  0  0  0  0  0  0  0  0  0
   -3.2384   -7.4676   -2.6908 C   0  0  0  0  0  0  0  0  0  0  0  0
   -4.3153   -8.1566   -3.2617 C   0  0  0  0  0  0  0  0  0  0  0  0
   -4.1161   -8.7469   -4.5133 C   0  0  0  0  0  0  0  0  0  0  0  0
   -2.8889   -8.6508   -5.1649 C   0  0  0  0  0  0  0  0  0  0  0  0
   -1.8227   -7.9580   -4.5800 C   0  0  0  0  0  0  0  0  0  0  0  0
   -1.9979   -7.3530   -3.3182 C   0  0  0  0  0  0  0  0  0  0  0  0
  1  2  1  0
  2  3  1  0
  3  4  1  0
  4  5  2  0
  4  6  1  0
  6  7  1  0
  7  8  2  0
  7  9  1  0
  9 10  1  0
 10 11  1  0
 11 12  2  0
 12 13  1  0
 13 14  1  0
 14 15  2  0
 15 16  1  0
 16 17  2  0
 17 18  1  0
 18 19  2  0
 19 11  1  0
 19 14  1  0
M  END
$$$$
