
     RDKit          3D

 16 17  0  0  0  0  0  0  0  0999 V2000
   37.1251    2.3300  -64.7145 N   0  0  0  0  0  0  0  0  0  0  0  0
   36.2209    2.1981  -63.5723 C   0  0  0  0  0  0  0  0  0  0  0  0
   34.8081    1.8797  -64.0452 C   0  0  0  0  0  0  0  0  0  0  0  0
   33.8462    1.7254  -62.8811 C   0  0  0  0  0  0  0  0  0  0  0  0
   34.1718    1.9860  -61.7235 O   0  0  0  0  0  0  0  0  0  0  0  0
   32.4501    1.2559  -63.2428 C   0  0  0  0  0  0  0  0  0  0  0  0
   31.5567    1.1101  -62.0149 C   0  0  0  0  0  0  0  0  0  0  0  0
   30.1818    0.6469  -62.3812 C   0  0  0  0  0  0  0  0  0  0  0  0
   29.7328   -0.6594  -62.3856 C   0  0  0  0  0  0  0  0  0  0  0  0
   28.4231   -0.6631  -62.7829 N   0  0  0  0  0  0  0  0  0  0  0  0
   28.0014    0.6190  -63.0459 C   0  0  0  0  0  0  0  0  0  0  0  0
   26.7547    1.0878  -63.4776 C   0  0  0  0  0  0  0  0  0  0  0  0
   26.6087    2.4658  -63.6613 C   0  0  0  0  0  0  0  0  0  0  0  0
   27.6680    3.3374  -63.4210 C   0  0  0  0  0  0  0  0  0  0  0  0
   28.9078    2.8513  -62.9898 C   0  0  0  0  0  0  0  0  0  0  0  0
   29.0825    1.4651  -62.7981 C   0  0  0  0  0  0  0  0  0  0  0  0
  1  2  1  0
  2  3  1  0
  3  4  1  0
  4  5  2  0
  4  6  1  0
  6  7  1  0
  7  8  1  0
  8  9  2  0
  9 10  1  0
 10 11  1  0
 11 12  2  0
 12 13  1  0
 13 14  2  0
 14 15  1  0
 15 16  2  0
 16  8  1  0
 16 11  1  0
M  END
$$$$
