
     RDKit          3D

 15 16  0  0  0  0  0  0  0  0999 V2000
   -2.3295   21.0072    0.0950 N   0  0  0  0  0  0  0  0  0  0  0  0
   -1.9181   19.6386   -0.2015 C   0  0  0  0  0  0  0  0  0  0  0  0
   -3.0910   18.6689   -0.0502 C   0  0  0  0  0  0  0  0  0  0  0  0
   -2.6663   17.2326   -0.3623 C   0  0  0  0  0  0  0  0  0  0  0  0
   -3.7306   16.1743   -0.0422 C   0  0  0  0  0  0  0  0  0  0  0  0
   -4.9275   16.1439   -0.9975 C   0  0  0  0  0  0  0  0  0  0  0  0
   -5.9337   17.2117   -0.7339 C   0  0  0  0  0  0  0  0  0  0  0  0
   -6.3712   17.6172    0.4408 N   0  0  0  0  0  0  0  0  0  0  0  0
   -7.2748   18.6168    0.1774 C   0  0  0  0  0  0  0  0  0  0  0  0
   -8.0296   19.4010    1.0610 C   0  0  0  0  0  0  0  0  0  0  0  0
   -8.8900   20.3709    0.5304 C   0  0  0  0  0  0  0  0  0  0  0  0
   -8.9962   20.5546   -0.8508 C   0  0  0  0  0  0  0  0  0  0  0  0
   -8.2511   19.7800   -1.7481 C   0  0  0  0  0  0  0  0  0  0  0  0
   -7.4016   18.8218   -1.1911 C   0  0  0  0  0  0  0  0  0  0  0  0
   -6.5459   17.9075   -1.7487 N   0  0  0  0  0  0  0  0  0  0  0  0
  1  2  1  0
  2  3  1  0
  3  4  1  0
  4  5  1  0
  5  6  1  0
  6  7  1  0
  7  8  2  0
  8  9  1  0
  9 10  2  0
 10 11  1  0
 11 12  2  0
 12 13  1  0
 13 14  2  0
 14 15  1  0
 15  7  1  0
 14  9  1  0
M  END
$$$$
