
     RDKit          3D

 22 24  0  0  0  0  0  0  0  0999 V2000
   -8.9333    9.2273  -11.9430 N   0  0  0  0  0  0  0  0  0  0  0  0
   -8.9640    8.6116  -13.2778 C   0  0  0  0  0  0  0  0  0  0  0  0
   -7.5706    8.6173  -13.8895 C   0  0  0  0  0  0  0  0  0  0  0  0
   -6.7956    9.5671  -13.7749 O   0  0  0  0  0  0  0  0  0  0  0  0
   -7.1889    7.4838  -14.7534 C   0  0  0  0  0  0  0  0  0  0  0  0
   -7.0914    7.7706  -16.1195 C   0  0  0  0  0  0  0  0  0  0  0  0
   -6.7036    6.7554  -16.9688 C   0  0  0  0  0  0  0  0  0  0  0  0
   -6.4103    5.5112  -16.5472 N   0  0  0  0  0  0  0  0  0  0  0  0
   -6.4877    5.2810  -15.2125 C   0  0  0  0  0  0  0  0  0  0  0  0
   -6.8662    6.2146  -14.2423 C   0  0  0  0  0  0  0  0  0  0  0  0
   -6.8988    5.9185  -12.8668 N   0  0  0  0  0  0  0  0  0  0  0  0
   -8.1063    5.1957  -12.4368 C   0  0  0  0  0  0  0  0  0  0  0  0
   -7.9978    3.6872  -12.6311 C   0  0  0  0  0  0  0  0  0  0  0  0
   -6.6405    3.1320  -12.2241 C   0  0  0  0  0  0  0  0  0  0  0  0
   -5.8165    4.1566  -11.4565 C   0  0  0  0  0  0  0  0  0  0  0  0
   -5.5996    5.4795  -12.2548 C   0  0  0  0  0  0  0  0  0  0  0  0
   -4.8896    6.3993  -11.3331 N   0  0  0  0  0  0  0  0  0  0  0  0
   -5.0400    7.8081  -11.7327 C   0  0  0  0  0  0  0  0  0  0  0  0
   -4.0586    8.7685  -11.0415 C   0  0  0  0  0  0  0  0  0  0  0  0
   -3.5426    8.1975   -9.7306 C   0  0  0  0  0  0  0  0  0  0  0  0
   -2.8917    6.8333   -9.9602 C   0  0  0  0  0  0  0  0  0  0  0  0
   -3.4641    6.0888  -11.1754 C   0  0  0  0  0  0  0  0  0  0  0  0
  1  2  1  0
  2  3  1  0
  3  4  2  0
  3  5  1  0
  5  6  2  0
  6  7  1  0
  7  8  2  0
  8  9  1  0
  9 10  2  0
 10 11  1  0
 11 12  1  0
 12 13  1  0
 13 14  1  0
 14 15  1  0
 15 16  1  0
 16 17  1  0
 17 18  1  0
 18 19  1  0
 19 20  1  0
 20 21  1  0
 21 22  1  0
 10  5  1  0
 16 11  1  0
 22 17  1  0
M  END
$$$$
