
     RDKit          3D

 28 31  0  0  0  0  0  0  0  0999 V2000
   -0.6266   21.9104  -15.6749 N   0  0  0  0  0  0  0  0  0  0  0  0
    0.1664   21.7396  -16.8488 C   0  0  0  0  0  0  0  0  0  0  0  0
    0.5774   22.8666  -17.5550 C   0  0  0  0  0  0  0  0  0  0  0  0
    1.4357   22.6883  -18.6243 C   0  0  0  0  0  0  0  0  0  0  0  0
    1.9410   21.4890  -18.9937 N   0  0  0  0  0  0  0  0  0  0  0  0
    1.5698   20.4175  -18.2459 C   0  0  0  0  0  0  0  0  0  0  0  0
    0.7009   20.4656  -17.1533 C   0  0  0  0  0  0  0  0  0  0  0  0
    0.3364   19.3616  -16.3533 N   0  0  0  0  0  0  0  0  0  0  0  0
    0.1452   18.0987  -17.1040 C   0  0  0  0  0  0  0  0  0  0  0  0
   -0.3364   17.0077  -16.1602 C   0  0  0  0  0  0  0  0  0  0  0  0
   -0.3812   15.8234  -16.4943 O   0  0  0  0  0  0  0  0  0  0  0  0
   -0.8113   17.4680  -14.8053 C   0  0  0  0  0  0  0  0  0  0  0  0
    0.2177   18.3810  -14.1341 C   0  0  0  0  0  0  0  0  0  0  0  0
    1.1274   19.1810  -15.1115 C   0  0  0  0  0  0  0  0  0  0  0  0
    1.6759   20.3514  -14.4086 N   0  0  0  0  0  0  0  0  0  0  0  0
    2.5476   20.0432  -13.2612 C   0  0  0  0  0  0  0  0  0  0  0  0
    3.8856   19.3619  -13.6305 C   0  0  0  0  0  0  0  0  0  0  0  0
    4.5145   19.9168  -14.8345 N   0  0  0  0  0  0  0  0  0  0  0  0
    5.0769   21.2510  -14.5973 C   0  0  0  0  0  0  0  0  0  0  0  0
    5.8039   21.6681  -15.8345 C   0  0  0  0  0  0  0  0  0  0  0  0
    5.2404   21.8850  -17.0797 C   0  0  0  0  0  0  0  0  0  0  0  0
    6.2292   22.2490  -17.9505 N   0  0  0  0  0  0  0  0  0  0  0  0
    7.4409   22.2958  -17.2983 C   0  0  0  0  0  0  0  0  0  0  0  0
    8.7135   22.6257  -17.7835 C   0  0  0  0  0  0  0  0  0  0  0  0
    9.7850   22.5823  -16.8850 C   0  0  0  0  0  0  0  0  0  0  0  0
    9.5889   22.2199  -15.5552 C   0  0  0  0  0  0  0  0  0  0  0  0
    8.3099   21.8888  -15.0873 C   0  0  0  0  0  0  0  0  0  0  0  0
    7.2089   21.9301  -15.9701 C   0  0  0  0  0  0  0  0  0  0  0  0
  1  2  1  0
  2  3  2  0
  3  4  1  0
  4  5  2  0
  5  6  1  0
  6  7  2  0
  7  8  1  0
  8  9  1  0
  9 10  1  0
 10 11  2  0
 10 12  1  0
 12 13  1  0
 13 14  1  0
 14 15  1  0
 15 16  1  0
 16 17  1  0
 17 18  1  0
 18 19  1  0
 19 20  1  0
 20 21  2  0
 21 22  1  0
 22 23  1  0
 23 24  2  0
 24 25  1  0
 25 26  2  0
 26 27  1  0
 27 28  2  0
  7  2  1  0
 14  8  1  0
 28 20  1  0
 28 23  1  0
M  END
$$$$
