
     RDKit          3D

 26 28  0  0  0  0  0  0  0  0999 V2000
   64.4988   24.0321  -38.6146 C   0  0  0  0  0  0  0  0  0  0  0  0
   65.0458   25.0363  -39.4894 N   0  0  0  0  0  0  0  0  0  0  0  0
   66.0164   25.9088  -39.0523 C   0  0  0  0  0  0  0  0  0  0  0  0
   66.5361   25.8435  -37.9486 O   0  0  0  0  0  0  0  0  0  0  0  0
   66.4138   26.9372  -40.0902 C   0  0  0  0  0  0  0  0  0  0  0  0
   65.7146   28.2640  -39.9034 C   0  0  0  0  0  0  0  0  0  0  0  0
   66.3220   29.2054  -39.0541 C   0  0  0  0  0  0  0  0  0  0  0  0
   65.7399   30.4516  -38.8220 C   0  0  0  0  0  0  0  0  0  0  0  0
   64.5391   30.7784  -39.4388 C   0  0  0  0  0  0  0  0  0  0  0  0
   63.8669   31.9626  -39.3124 O   0  0  0  0  0  0  0  0  0  0  0  0
   64.4846   32.9652  -38.5150 C   0  0  0  0  0  0  0  0  0  0  0  0
   63.9199   29.8417  -40.2721 C   0  0  0  0  0  0  0  0  0  0  0  0
   64.4744   28.5700  -40.5087 C   0  0  0  0  0  0  0  0  0  0  0  0
   63.8551   27.6241  -41.3748 N   0  0  0  0  0  0  0  0  0  0  0  0
   64.3393   27.8889  -42.7573 C   0  0  0  0  0  0  0  0  0  0  0  0
   63.8235   26.8591  -43.7556 C   0  0  0  0  0  0  0  0  0  0  0  0
   64.3767   26.7041  -44.8604 O   0  0  0  0  0  0  0  0  0  0  0  0
   62.4961   26.1774  -43.4788 C   0  0  0  0  0  0  0  0  0  0  0  0
   62.0264   26.2141  -42.0264 C   0  0  0  0  0  0  0  0  0  0  0  0
   62.3663   27.5566  -41.3354 C   0  0  0  0  0  0  0  0  0  0  0  0
   61.6212   27.7274  -40.0875 N   0  0  0  0  0  0  0  0  0  0  0  0
   60.2235   28.1040  -40.2351 C   0  0  0  0  0  0  0  0  0  0  0  0
   59.6863   28.6091  -38.8972 C   0  0  0  0  0  0  0  0  0  0  0  0
   59.8567   27.5928  -37.7678 C   0  0  0  0  0  0  0  0  0  0  0  0
   60.6920   26.3893  -38.1879 C   0  0  0  0  0  0  0  0  0  0  0  0
   61.9203   26.7930  -39.0068 C   0  0  0  0  0  0  0  0  0  0  0  0
  1  2  1  0
  2  3  1  0
  3  4  2  0
  3  5  1  0
  5  6  1  0
  6  7  2  0
  7  8  1  0
  8  9  2  0
  9 10  1  0
 10 11  1  0
  9 12  1  0
 12 13  2  0
 13 14  1  0
 14 15  1  0
 15 16  1  0
 16 17  2  0
 16 18  1  0
 18 19  1  0
 19 20  1  0
 20 21  1  0
 21 22  1  0
 22 23  1  0
 23 24  1  0
 24 25  1  0
 25 26  1  0
 13  6  1  0
 20 14  1  0
 26 21  1  0
M  END
$$$$
