
     RDKit          3D

 23 24  0  0  0  0  0  0  0  0999 V2000
    6.3547   -1.6689  -33.0388 N   0  0  0  0  0  0  0  0  0  0  0  0
    5.6043   -2.7047  -32.3392 C   0  0  0  0  0  0  0  0  0  0  0  0
    4.1845   -2.2712  -32.0825 C   0  0  0  0  0  0  0  0  0  0  0  0
    3.8489   -1.5845  -30.9076 C   0  0  0  0  0  0  0  0  0  0  0  0
    2.5359   -1.1575  -30.6776 C   0  0  0  0  0  0  0  0  0  0  0  0
    1.5442   -1.4062  -31.6253 C   0  0  0  0  0  0  0  0  0  0  0  0
    0.2296   -1.0501  -31.5281 O   0  0  0  0  0  0  0  0  0  0  0  0
   -0.1541   -0.2679  -30.4040 C   0  0  0  0  0  0  0  0  0  0  0  0
   -1.6382    0.1083  -30.4700 C   0  0  0  0  0  0  0  0  0  0  0  0
   -2.1606    0.7356  -29.5516 O   0  0  0  0  0  0  0  0  0  0  0  0
   -2.2645   -0.3266  -31.6218 N   0  0  0  0  0  0  0  0  0  0  0  0
   -3.6039   -0.1362  -32.0384 C   0  0  0  0  0  0  0  0  0  0  0  0
   -4.5128    0.6257  -31.2913 C   0  0  0  0  0  0  0  0  0  0  0  0
   -5.8211    0.8155  -31.7410 C   0  0  0  0  0  0  0  0  0  0  0  0
   -6.9193    1.7600  -30.8107 Cl  0  0  0  0  0  0  0  0  0  0  0  0
   -6.2479    0.2576  -32.9413 C   0  0  0  0  0  0  0  0  0  0  0  0
   -5.3625   -0.5101  -33.6968 C   0  0  0  0  0  0  0  0  0  0  0  0
   -4.0470   -0.7266  -33.2479 C   0  0  0  0  0  0  0  0  0  0  0  0
   -3.1285   -1.5734  -34.0670 C   0  0  0  0  0  0  0  0  0  0  0  0
   -3.6895   -2.5277  -34.8718 N   0  0  0  0  0  0  0  0  0  0  0  0
   -1.9102   -1.4613  -33.9977 O   0  0  0  0  0  0  0  0  0  0  0  0
    1.8748   -2.0839  -32.8004 C   0  0  0  0  0  0  0  0  0  0  0  0
    3.1842   -2.5105  -33.0324 C   0  0  0  0  0  0  0  0  0  0  0  0
  1  2  1  0
  2  3  1  0
  3  4  2  0
  4  5  1  0
  5  6  2  0
  6  7  1  0
  7  8  1  0
  8  9  1  0
  9 10  2  0
  9 11  1  0
 11 12  1  0
 12 13  2  0
 13 14  1  0
 14 15  1  0
 14 16  2  0
 16 17  1  0
 17 18  2  0
 18 19  1  0
 19 20  1  0
 19 21  2  0
  6 22  1  0
 22 23  2  0
 23  3  1  0
 18 12  1  0
M  END
$$$$
