
     RDKit          3D

 29 32  0  0  0  0  0  0  0  0999 V2000
   11.8382  -15.5203    6.7885 N   0  0  0  0  0  0  0  0  0  0  0  0
   12.1535  -14.2056    6.9798 C   0  0  0  0  0  0  0  0  0  0  0  0
   13.2349  -13.8973    7.4896 O   0  0  0  0  0  0  0  0  0  0  0  0
   11.1699  -13.1748    6.5198 C   0  0  0  0  0  0  0  0  0  0  0  0
   11.5496  -11.8454    6.7832 C   0  0  0  0  0  0  0  0  0  0  0  0
   10.7552  -10.8118    6.3249 C   0  0  0  0  0  0  0  0  0  0  0  0
    9.6285  -11.0069    5.6156 N   0  0  0  0  0  0  0  0  0  0  0  0
    9.2866  -12.2954    5.3664 C   0  0  0  0  0  0  0  0  0  0  0  0
    9.9785  -13.4375    5.8058 C   0  0  0  0  0  0  0  0  0  0  0  0
    9.5128  -14.7385    5.5103 N   0  0  0  0  0  0  0  0  0  0  0  0
    9.1709  -14.9418    4.0823 C   0  0  0  0  0  0  0  0  0  0  0  0
    9.0764  -16.4260    3.7702 C   0  0  0  0  0  0  0  0  0  0  0  0
    9.0320  -16.8424    2.6099 O   0  0  0  0  0  0  0  0  0  0  0  0
    8.9767  -17.3606    4.9617 C   0  0  0  0  0  0  0  0  0  0  0  0
    8.0536  -16.7191    5.9869 C   0  0  0  0  0  0  0  0  0  0  0  0
    8.5586  -15.3449    6.5015 C   0  0  0  0  0  0  0  0  0  0  0  0
    7.3532  -14.4578    6.9484 C   0  0  0  0  0  0  0  0  0  0  0  0
    6.4706  -14.0337    5.8508 N   0  0  0  0  0  0  0  0  0  0  0  0
    5.1028  -14.5537    5.9552 C   0  0  0  0  0  0  0  0  0  0  0  0
    4.2484  -13.8894    7.0500 C   0  0  0  0  0  0  0  0  0  0  0  0
    2.8193  -14.3225    6.9582 C   0  0  0  0  0  0  0  0  0  0  0  0
    2.3034  -15.5256    7.3874 C   0  0  0  0  0  0  0  0  0  0  0  0
    0.9743  -15.5629    7.0633 N   0  0  0  0  0  0  0  0  0  0  0  0
    0.6024  -14.4001    6.4375 C   0  0  0  0  0  0  0  0  0  0  0  0
   -0.6425  -14.0113    5.9276 C   0  0  0  0  0  0  0  0  0  0  0  0
   -0.7285  -12.7451    5.3293 C   0  0  0  0  0  0  0  0  0  0  0  0
    0.3816  -11.9075    5.2599 C   0  0  0  0  0  0  0  0  0  0  0  0
    1.6178  -12.3177    5.7739 C   0  0  0  0  0  0  0  0  0  0  0  0
    1.7367  -13.5891    6.3719 C   0  0  0  0  0  0  0  0  0  0  0  0
  1  2  1  0
  2  3  2  0
  2  4  1  0
  4  5  2  0
  5  6  1  0
  6  7  2  0
  7  8  1  0
  8  9  2  0
  9 10  1  0
 10 11  1  0
 11 12  1  0
 12 13  2  0
 12 14  1  0
 14 15  1  0
 15 16  1  0
 16 17  1  0
 17 18  1  0
 18 19  1  0
 19 20  1  0
 20 21  1  0
 21 22  2  0
 22 23  1  0
 23 24  1  0
 24 25  2  0
 25 26  1  0
 26 27  2  0
 27 28  1  0
 28 29  2  0
  9  4  1  0
 16 10  1  0
 29 21  1  0
 29 24  1  0
M  END
$$$$
