
     RDKit          3D

 16 17  0  0  0  0  0  0  0  0999 V2000
    6.5389  -27.2963   -0.1488 N   0  0  0  0  0  0  0  0  0  0  0  0
    7.1005  -28.3871    0.6364 C   0  0  0  0  0  0  0  0  0  0  0  0
    6.0041  -29.0748    1.4469 C   0  0  0  0  0  0  0  0  0  0  0  0
    6.5867  -30.1569    2.3470 C   0  0  0  0  0  0  0  0  0  0  0  0
    5.5192  -31.0455    2.9551 C   0  0  0  0  0  0  0  0  0  0  0  0
    5.4705  -32.2451    2.6681 O   0  0  0  0  0  0  0  0  0  0  0  0
    4.5434  -30.4212    3.9359 C   0  0  0  0  0  0  0  0  0  0  0  0
    3.2376  -30.0777    3.2979 C   0  0  0  0  0  0  0  0  0  0  0  0
    2.3708  -30.9637    2.6858 C   0  0  0  0  0  0  0  0  0  0  0  0
    1.2859  -30.2673    2.2312 N   0  0  0  0  0  0  0  0  0  0  0  0
    1.4134  -28.9346    2.5424 C   0  0  0  0  0  0  0  0  0  0  0  0
    0.5511  -27.8632    2.2797 C   0  0  0  0  0  0  0  0  0  0  0  0
    0.9390  -26.5952    2.7205 C   0  0  0  0  0  0  0  0  0  0  0  0
    2.1408  -26.4097    3.3982 C   0  0  0  0  0  0  0  0  0  0  0  0
    2.9904  -27.4925    3.6538 C   0  0  0  0  0  0  0  0  0  0  0  0
    2.6259  -28.7836    3.2172 C   0  0  0  0  0  0  0  0  0  0  0  0
  1  2  1  0
  2  3  1  0
  3  4  1  0
  4  5  1  0
  5  6  2  0
  5  7  1  0
  7  8  1  0
  8  9  2  0
  9 10  1  0
 10 11  1  0
 11 12  2  0
 12 13  1  0
 13 14  2  0
 14 15  1  0
 15 16  2  0
 16  8  1  0
 16 11  1  0
M  END
$$$$
