
     RDKit          3D

 24 26  0  0  0  0  0  0  0  0999 V2000
   -8.9841   16.9697   10.1330 C   0  0  0  0  0  0  0  0  0  0  0  0
   -8.0525   18.0010    9.8330 O   0  0  0  0  0  0  0  0  0  0  0  0
   -8.0546   19.0933   10.6558 C   0  0  0  0  0  0  0  0  0  0  0  0
   -8.9006   19.3055   11.7346 C   0  0  0  0  0  0  0  0  0  0  0  0
   -8.7885   20.4803   12.4815 C   0  0  0  0  0  0  0  0  0  0  0  0
   -7.8281   21.4695   12.1751 C   0  0  0  0  0  0  0  0  0  0  0  0
   -7.8496   22.7211   13.0248 C   0  0  0  0  0  0  0  0  0  0  0  0
   -9.0266   23.6360   12.6608 C   0  0  0  0  0  0  0  0  0  0  0  0
   -8.9803   24.8841   13.4222 N   0  0  0  0  0  0  0  0  0  0  0  0
   -6.9473   21.2498   11.0985 C   0  0  0  0  0  0  0  0  0  0  0  0
   -5.9172   22.1047   10.6785 N   0  0  0  0  0  0  0  0  0  0  0  0
   -6.3985   23.3151    9.9962 C   0  0  0  0  0  0  0  0  0  0  0  0
   -5.2554   23.9930    9.2572 C   0  0  0  0  0  0  0  0  0  0  0  0
   -5.4176   24.5618    8.1757 O   0  0  0  0  0  0  0  0  0  0  0  0
   -3.9406   24.0901    9.9954 C   0  0  0  0  0  0  0  0  0  0  0  0
   -3.5936   22.7718   10.6776 C   0  0  0  0  0  0  0  0  0  0  0  0
   -4.7579   22.2783   11.5813 C   0  0  0  0  0  0  0  0  0  0  0  0
   -4.3321   21.1724   12.4496 N   0  0  0  0  0  0  0  0  0  0  0  0
   -3.6120   21.5952   13.6517 C   0  0  0  0  0  0  0  0  0  0  0  0
   -2.8179   20.4633   14.3181 C   0  0  0  0  0  0  0  0  0  0  0  0
   -3.5223   19.1227   14.1599 C   0  0  0  0  0  0  0  0  0  0  0  0
   -3.7822   18.8023   12.6850 C   0  0  0  0  0  0  0  0  0  0  0  0
   -3.7211   20.0358   11.7762 C   0  0  0  0  0  0  0  0  0  0  0  0
   -7.0982   20.0635   10.3492 C   0  0  0  0  0  0  0  0  0  0  0  0
  1  2  1  0
  2  3  1  0
  3  4  2  0
  4  5  1  0
  5  6  2  0
  6  7  1  0
  7  8  1  0
  8  9  1  0
  6 10  1  0
 10 11  1  0
 11 12  1  0
 12 13  1  0
 13 14  2  0
 13 15  1  0
 15 16  1  0
 16 17  1  0
 17 18  1  0
 18 19  1  0
 19 20  1  0
 20 21  1  0
 21 22  1  0
 22 23  1  0
 10 24  2  0
 24  3  1  0
 17 11  1  0
 23 18  1  0
M  END
$$$$
