
     RDKit          3D

 20 21  0  0  0  0  0  0  0  0999 V2000
  -14.7114   12.4202  -21.2190 N   0  0  0  0  0  0  0  0  0  0  0  0
  -15.2406   11.1789  -21.1516 C   0  0  0  0  0  0  0  0  0  0  0  0
  -15.8336   10.7520  -20.1745 O   0  0  0  0  0  0  0  0  0  0  0  0
  -15.0102   10.5173  -22.3026 O   0  0  0  0  0  0  0  0  0  0  0  0
  -15.4936    9.1701  -22.3216 C   0  0  0  0  0  0  0  0  0  0  0  0
  -16.9722    9.1817  -22.7352 C   0  0  0  0  0  0  0  0  0  0  0  0
  -17.5555    7.7706  -22.7985 C   0  0  0  0  0  0  0  0  0  0  0  0
  -16.4870    6.7056  -23.0396 C   0  0  0  0  0  0  0  0  0  0  0  0
  -15.3646    7.2294  -23.9296 C   0  0  0  0  0  0  0  0  0  0  0  0
  -14.7237    8.4304  -23.3492 N   0  0  0  0  0  0  0  0  0  0  0  0
  -13.3500    8.2208  -23.0759 C   0  0  0  0  0  0  0  0  0  0  0  0
  -12.9389    7.6543  -21.8524 C   0  0  0  0  0  0  0  0  0  0  0  0
  -11.5927    7.3818  -21.5972 C   0  0  0  0  0  0  0  0  0  0  0  0
  -11.1340    6.6859  -20.0900 Cl  0  0  0  0  0  0  0  0  0  0  0  0
  -10.6223    7.6525  -22.5534 C   0  0  0  0  0  0  0  0  0  0  0  0
  -11.0013    8.2065  -23.7750 C   0  0  0  0  0  0  0  0  0  0  0  0
  -12.3512    8.4999  -24.0452 C   0  0  0  0  0  0  0  0  0  0  0  0
  -12.6245    9.1222  -25.3776 C   0  0  0  0  0  0  0  0  0  0  0  0
  -13.7719    9.8487  -25.5047 N   0  0  0  0  0  0  0  0  0  0  0  0
  -11.8459    9.0086  -26.3177 O   0  0  0  0  0  0  0  0  0  0  0  0
  1  2  1  0
  2  3  2  0
  2  4  1  0
  4  5  1  0
  5  6  1  0
  6  7  1  0
  7  8  1  0
  8  9  1  0
  9 10  1  0
 10 11  1  0
 11 12  2  0
 12 13  1  0
 13 14  1  0
 13 15  2  0
 15 16  1  0
 16 17  2  0
 17 18  1  0
 18 19  1  0
 18 20  2  0
 10  5  1  0
 17 11  1  0
M  END
$$$$
