
     RDKit          3D

 27 30  0  0  0  0  0  0  0  0999 V2000
    7.0159   33.5731  -21.2075 N   0  0  0  0  0  0  0  0  0  0  0  0
    8.2674   33.5690  -21.9656 C   0  0  0  0  0  0  0  0  0  0  0  0
    8.0213   33.4470  -23.4539 C   0  0  0  0  0  0  0  0  0  0  0  0
    7.6908   34.6241  -24.1601 C   0  0  0  0  0  0  0  0  0  0  0  0
    7.4675   34.6030  -25.5348 C   0  0  0  0  0  0  0  0  0  0  0  0
    7.5658   33.3983  -26.2113 C   0  0  0  0  0  0  0  0  0  0  0  0
    7.3499   33.3197  -27.5566 O   0  0  0  0  0  0  0  0  0  0  0  0
    7.8839   32.2224  -25.5368 C   0  0  0  0  0  0  0  0  0  0  0  0
    8.1238   32.2181  -24.1513 C   0  0  0  0  0  0  0  0  0  0  0  0
    8.4342   31.0288  -23.4666 N   0  0  0  0  0  0  0  0  0  0  0  0
    7.2807   30.5012  -22.6961 C   0  0  0  0  0  0  0  0  0  0  0  0
    6.8889   29.0936  -23.1158 C   0  0  0  0  0  0  0  0  0  0  0  0
    5.7119   28.7313  -23.1864 O   0  0  0  0  0  0  0  0  0  0  0  0
    8.0013   28.1037  -23.3733 C   0  0  0  0  0  0  0  0  0  0  0  0
    9.3712   28.7598  -23.2929 C   0  0  0  0  0  0  0  0  0  0  0  0
    9.3757   30.0690  -24.0967 C   0  0  0  0  0  0  0  0  0  0  0  0
   10.8121   30.6714  -24.1461 C   0  0  0  0  0  0  0  0  0  0  0  0
   11.2309   31.1032  -22.8087 N   0  0  0  0  0  0  0  0  0  0  0  0
   12.2649   31.9596  -22.6794 C   0  0  0  0  0  0  0  0  0  0  0  0
   12.3024   33.0276  -21.9216 N   0  0  0  0  0  0  0  0  0  0  0  0
   13.5547   33.5619  -22.1065 C   0  0  0  0  0  0  0  0  0  0  0  0
   14.1315   34.7125  -21.5495 C   0  0  0  0  0  0  0  0  0  0  0  0
   15.4467   35.0427  -21.9016 C   0  0  0  0  0  0  0  0  0  0  0  0
   16.1730   34.2429  -22.7885 C   0  0  0  0  0  0  0  0  0  0  0  0
   15.6148   33.0905  -23.3547 C   0  0  0  0  0  0  0  0  0  0  0  0
   14.3022   32.7878  -22.9876 C   0  0  0  0  0  0  0  0  0  0  0  0
   13.4551   31.7653  -23.3275 N   0  0  0  0  0  0  0  0  0  0  0  0
  1  2  1  0
  2  3  1  0
  3  4  2  0
  4  5  1  0
  5  6  2  0
  6  7  1  0
  6  8  1  0
  8  9  2  0
  9 10  1  0
 10 11  1  0
 11 12  1  0
 12 13  2  0
 12 14  1  0
 14 15  1  0
 15 16  1  0
 16 17  1  0
 17 18  1  0
 18 19  1  0
 19 20  2  0
 20 21  1  0
 21 22  2  0
 22 23  1  0
 23 24  2  0
 24 25  1  0
 25 26  2  0
 26 27  1  0
  9  3  1  0
 16 10  1  0
 27 19  1  0
 26 21  1  0
M  END
$$$$
