
     RDKit          3D

 16 17  0  0  0  0  0  0  0  0999 V2000
    4.0455    9.2712   12.8959 N   0  0  0  0  0  0  0  0  0  0  0  0
    4.6071    8.1804   13.6810 C   0  0  0  0  0  0  0  0  0  0  0  0
    3.5107    7.4927   14.4915 C   0  0  0  0  0  0  0  0  0  0  0  0
    4.0932    6.4106   15.3916 C   0  0  0  0  0  0  0  0  0  0  0  0
    3.0257    5.5221   15.9997 C   0  0  0  0  0  0  0  0  0  0  0  0
    2.9770    4.3224   15.7127 O   0  0  0  0  0  0  0  0  0  0  0  0
    2.0500    6.1464   16.9805 C   0  0  0  0  0  0  0  0  0  0  0  0
    0.7442    6.4898   16.3425 C   0  0  0  0  0  0  0  0  0  0  0  0
   -0.1227    5.6038   15.7304 C   0  0  0  0  0  0  0  0  0  0  0  0
   -1.2076    6.3002   15.2758 N   0  0  0  0  0  0  0  0  0  0  0  0
   -1.0801    7.6329   15.5871 C   0  0  0  0  0  0  0  0  0  0  0  0
   -1.9423    8.7044   15.3243 C   0  0  0  0  0  0  0  0  0  0  0  0
   -1.5544    9.9723   15.7651 C   0  0  0  0  0  0  0  0  0  0  0  0
   -0.3527   10.1578   16.4428 C   0  0  0  0  0  0  0  0  0  0  0  0
    0.4970    9.0750   16.6984 C   0  0  0  0  0  0  0  0  0  0  0  0
    0.1324    7.7839   16.2618 C   0  0  0  0  0  0  0  0  0  0  0  0
  1  2  1  0
  2  3  1  0
  3  4  1  0
  4  5  1  0
  5  6  2  0
  5  7  1  0
  7  8  1  0
  8  9  2  0
  9 10  1  0
 10 11  1  0
 11 12  2  0
 12 13  1  0
 13 14  2  0
 14 15  1  0
 15 16  2  0
 16  8  1  0
 16 11  1  0
M  END
$$$$
