
     RDKit          3D

 28 31  0  0  0  0  0  0  0  0999 V2000
  -21.7249   28.4171    9.8880 N   0  0  0  0  0  0  0  0  0  0  0  0
  -20.7106   27.1214   10.2795 S   0  0  0  0  0  0  0  0  0  0  0  0
  -21.1208   26.0837    9.3604 O   0  0  0  0  0  0  0  0  0  0  0  0
  -19.3915   27.7085   10.2776 O   0  0  0  0  0  0  0  0  0  0  0  0
  -21.1677   26.6711   11.9256 C   0  0  0  0  0  0  0  0  0  0  0  0
  -22.1497   27.4257   12.5823 C   0  0  0  0  0  0  0  0  0  0  0  0
  -22.4994   27.0712   13.8693 C   0  0  0  0  0  0  0  0  0  0  0  0
  -21.9523   26.0335   14.5244 N   0  0  0  0  0  0  0  0  0  0  0  0
  -21.0045   25.3259   13.8609 C   0  0  0  0  0  0  0  0  0  0  0  0
  -20.5433   25.5853   12.5640 C   0  0  0  0  0  0  0  0  0  0  0  0
  -19.5592   24.7945   11.9408 N   0  0  0  0  0  0  0  0  0  0  0  0
  -20.1540   23.7189   11.1070 C   0  0  0  0  0  0  0  0  0  0  0  0
  -19.9276   22.3455   11.7326 C   0  0  0  0  0  0  0  0  0  0  0  0
  -18.4394   22.0341   11.8835 C   0  0  0  0  0  0  0  0  0  0  0  0
  -17.5897   23.2977   12.0265 C   0  0  0  0  0  0  0  0  0  0  0  0
  -18.3666   24.4119   12.7476 C   0  0  0  0  0  0  0  0  0  0  0  0
  -17.4783   25.6364   13.0484 C   0  0  0  0  0  0  0  0  0  0  0  0
  -16.7293   26.1885   11.8364 C   0  0  0  0  0  0  0  0  0  0  0  0
  -16.1511   27.5086   12.1288 N   0  0  0  0  0  0  0  0  0  0  0  0
  -14.8861   27.5337   12.6031 C   0  0  0  0  0  0  0  0  0  0  0  0
  -13.7991   27.8778   11.9597 N   0  0  0  0  0  0  0  0  0  0  0  0
  -12.7859   27.7740   12.8832 C   0  0  0  0  0  0  0  0  0  0  0  0
  -11.4107   28.0087   12.7368 C   0  0  0  0  0  0  0  0  0  0  0  0
  -10.5785   27.8409   13.8513 C   0  0  0  0  0  0  0  0  0  0  0  0
  -11.1047   27.4510   15.0863 C   0  0  0  0  0  0  0  0  0  0  0  0
  -12.4740   27.2119   15.2525 C   0  0  0  0  0  0  0  0  0  0  0  0
  -13.2780   27.3820   14.1237 C   0  0  0  0  0  0  0  0  0  0  0  0
  -14.6251   27.2478   13.9147 N   0  0  0  0  0  0  0  0  0  0  0  0
  1  2  1  0
  2  3  2  0
  2  4  2  0
  2  5  1  0
  5  6  2  0
  6  7  1  0
  7  8  2  0
  8  9  1  0
  9 10  2  0
 10 11  1  0
 11 12  1  0
 12 13  1  0
 13 14  1  0
 14 15  1  0
 15 16  1  0
 16 17  1  0
 17 18  1  0
 18 19  1  0
 19 20  1  0
 20 21  2  0
 21 22  1  0
 22 23  2  0
 23 24  1  0
 24 25  2  0
 25 26  1  0
 26 27  2  0
 27 28  1  0
 10  5  1  0
 16 11  1  0
 28 20  1  0
 27 22  1  0
M  END
$$$$
