
     RDKit          3D

 19 20  0  0  0  0  0  0  0  0999 V2000
    3.0515    8.7851  -16.6146 N   0  0  0  0  0  0  0  0  0  0  0  0
    2.4122   10.0999  -16.6262 C   0  0  0  0  0  0  0  0  0  0  0  0
    1.7622   10.4469  -15.2941 C   0  0  0  0  0  0  0  0  0  0  0  0
    0.4330    9.7456  -15.1013 C   0  0  0  0  0  0  0  0  0  0  0  0
    0.2750    8.9286  -14.1908 O   0  0  0  0  0  0  0  0  0  0  0  0
   -0.6803   10.0748  -16.0815 C   0  0  0  0  0  0  0  0  0  0  0  0
   -2.0578    9.8803  -15.4621 C   0  0  0  0  0  0  0  0  0  0  0  0
   -2.3274   10.8767  -14.3481 C   0  0  0  0  0  0  0  0  0  0  0  0
   -1.5939   11.8500  -14.1601 O   0  0  0  0  0  0  0  0  0  0  0  0
   -3.5613   10.6319  -13.4997 C   0  0  0  0  0  0  0  0  0  0  0  0
   -4.8116   10.9155  -14.2614 C   0  0  0  0  0  0  0  0  0  0  0  0
   -5.3511   12.1626  -14.5030 C   0  0  0  0  0  0  0  0  0  0  0  0
   -6.4908   12.0034  -15.2425 N   0  0  0  0  0  0  0  0  0  0  0  0
   -6.7042   10.6749  -15.5058 C   0  0  0  0  0  0  0  0  0  0  0  0
   -7.7295   10.0564  -16.2310 C   0  0  0  0  0  0  0  0  0  0  0  0
   -7.6950    8.6607  -16.3459 C   0  0  0  0  0  0  0  0  0  0  0  0
   -6.6749    7.9204  -15.7570 C   0  0  0  0  0  0  0  0  0  0  0  0
   -5.6603    8.5550  -15.0300 C   0  0  0  0  0  0  0  0  0  0  0  0
   -5.6707    9.9624  -14.8997 C   0  0  0  0  0  0  0  0  0  0  0  0
  1  2  1  0
  2  3  1  0
  3  4  1  0
  4  5  2  0
  4  6  1  0
  6  7  1  0
  7  8  1  0
  8  9  2  0
  8 10  1  0
 10 11  1  0
 11 12  2  0
 12 13  1  0
 13 14  1  0
 14 15  2  0
 15 16  1  0
 16 17  2  0
 17 18  1  0
 18 19  2  0
 19 11  1  0
 19 14  1  0
M  END
$$$$
