
     RDKit          3D

 19 20  0  0  0  0  0  0  0  0999 V2000
   -2.0018    1.4034    0.9030 N   0  0  0  0  0  0  0  0  0  0  0  0
   -1.4947    0.8857   -0.3625 C   0  0  0  0  0  0  0  0  0  0  0  0
   -1.4647    1.9647   -1.4347 C   0  0  0  0  0  0  0  0  0  0  0  0
   -2.8568    2.3451   -1.8949 C   0  0  0  0  0  0  0  0  0  0  0  0
   -3.6136    1.5249   -2.4186 O   0  0  0  0  0  0  0  0  0  0  0  0
   -3.2855    3.7721   -1.7051 C   0  0  0  0  0  0  0  0  0  0  0  0
   -3.7211    4.0792   -0.2993 C   0  0  0  0  0  0  0  0  0  0  0  0
   -2.9277    4.5553    0.5157 O   0  0  0  0  0  0  0  0  0  0  0  0
   -5.1514    3.7633    0.0774 C   0  0  0  0  0  0  0  0  0  0  0  0
   -5.2434    2.4575    0.8525 C   0  0  0  0  0  0  0  0  0  0  0  0
   -6.6637    2.0710    1.1172 C   0  0  0  0  0  0  0  0  0  0  0  0
   -7.4103    2.3909    2.2339 C   0  0  0  0  0  0  0  0  0  0  0  0
   -8.6606    1.8547    2.0823 N   0  0  0  0  0  0  0  0  0  0  0  0
   -8.7523    1.1896    0.8820 C   0  0  0  0  0  0  0  0  0  0  0  0
   -9.8293    0.5006    0.3111 C   0  0  0  0  0  0  0  0  0  0  0  0
   -9.6301   -0.0897   -0.9405 C   0  0  0  0  0  0  0  0  0  0  0  0
   -8.4029    0.0064   -1.5921 C   0  0  0  0  0  0  0  0  0  0  0  0
   -7.3367    0.6992   -1.0072 C   0  0  0  0  0  0  0  0  0  0  0  0
   -7.5118    1.3042    0.2547 C   0  0  0  0  0  0  0  0  0  0  0  0
  1  2  1  0
  2  3  1  0
  3  4  1  0
  4  5  2  0
  4  6  1  0
  6  7  1  0
  7  8  2  0
  7  9  1  0
  9 10  1  0
 10 11  1  0
 11 12  2  0
 12 13  1  0
 13 14  1  0
 14 15  2  0
 15 16  1  0
 16 17  2  0
 17 18  1  0
 18 19  2  0
 19 11  1  0
 19 14  1  0
M  END
$$$$
