
     RDKit          3D

 29 32  0  0  0  0  0  0  0  0999 V2000
  -11.1201   -1.4471   16.6737 N   0  0  0  0  0  0  0  0  0  0  0  0
   -9.8390   -1.1475   16.0164 C   0  0  0  0  0  0  0  0  0  0  0  0
   -8.9133   -2.3562   16.1254 C   0  0  0  0  0  0  0  0  0  0  0  0
   -8.9614   -3.1360   17.0834 O   0  0  0  0  0  0  0  0  0  0  0  0
   -7.9066   -2.6032   15.0530 C   0  0  0  0  0  0  0  0  0  0  0  0
   -7.6446   -3.9496   14.7568 C   0  0  0  0  0  0  0  0  0  0  0  0
   -6.6978   -4.2473   13.7941 C   0  0  0  0  0  0  0  0  0  0  0  0
   -6.0008   -3.3097   13.1250 N   0  0  0  0  0  0  0  0  0  0  0  0
   -6.2560   -2.0151   13.4474 C   0  0  0  0  0  0  0  0  0  0  0  0
   -7.2024   -1.5815   14.3902 C   0  0  0  0  0  0  0  0  0  0  0  0
   -7.4079   -0.2117   14.6991 N   0  0  0  0  0  0  0  0  0  0  0  0
   -7.9361    0.4989   13.4963 C   0  0  0  0  0  0  0  0  0  0  0  0
   -8.2826    1.9355   13.8511 C   0  0  0  0  0  0  0  0  0  0  0  0
   -9.3357    2.4698   13.5053 O   0  0  0  0  0  0  0  0  0  0  0  0
   -7.1946    2.7069   14.5536 C   0  0  0  0  0  0  0  0  0  0  0  0
   -6.6595    1.8946   15.7260 C   0  0  0  0  0  0  0  0  0  0  0  0
   -6.2128    0.4741   15.2981 C   0  0  0  0  0  0  0  0  0  0  0  0
   -5.6394   -0.2860   16.5366 C   0  0  0  0  0  0  0  0  0  0  0  0
   -4.4397    0.3799   17.0677 N   0  0  0  0  0  0  0  0  0  0  0  0
   -3.3889   -0.5683   17.4539 C   0  0  0  0  0  0  0  0  0  0  0  0
   -2.7375   -1.1327   16.2285 C   0  0  0  0  0  0  0  0  0  0  0  0
   -2.8871   -2.4167   15.7372 C   0  0  0  0  0  0  0  0  0  0  0  0
   -2.1439   -2.5346   14.5921 N   0  0  0  0  0  0  0  0  0  0  0  0
   -1.4915   -1.3560   14.3241 C   0  0  0  0  0  0  0  0  0  0  0  0
   -0.6310   -1.0216   13.2694 C   0  0  0  0  0  0  0  0  0  0  0  0
   -0.1046    0.2738   13.2505 C   0  0  0  0  0  0  0  0  0  0  0  0
   -0.4237    1.1949   14.2492 C   0  0  0  0  0  0  0  0  0  0  0  0
   -1.2898    0.8429   15.2938 C   0  0  0  0  0  0  0  0  0  0  0  0
   -1.8361   -0.4575   15.3365 C   0  0  0  0  0  0  0  0  0  0  0  0
  1  2  1  0
  2  3  1  0
  3  4  2  0
  3  5  1  0
  5  6  2  0
  6  7  1  0
  7  8  2  0
  8  9  1  0
  9 10  2  0
 10 11  1  0
 11 12  1  0
 12 13  1  0
 13 14  2  0
 13 15  1  0
 15 16  1  0
 16 17  1  0
 17 18  1  0
 18 19  1  0
 19 20  1  0
 20 21  1  0
 21 22  2  0
 22 23  1  0
 23 24  1  0
 24 25  2  0
 25 26  1  0
 26 27  2  0
 27 28  1  0
 28 29  2  0
 10  5  1  0
 17 11  1  0
 29 21  1  0
 29 24  1  0
M  END
$$$$
