
     RDKit          3D

 26 28  0  0  0  0  0  0  0  0999 V2000
   -1.0494    2.9630    1.4226 C   0  0  0  0  0  0  0  0  0  0  0  0
   -1.2072    3.9453    0.4062 O   0  0  0  0  0  0  0  0  0  0  0  0
   -2.2480    4.8238    0.5423 C   0  0  0  0  0  0  0  0  0  0  0  0
   -2.9168    5.0625    1.7462 C   0  0  0  0  0  0  0  0  0  0  0  0
   -3.9642    5.9853    1.8051 C   0  0  0  0  0  0  0  0  0  0  0  0
   -4.3683    6.6835    0.6627 C   0  0  0  0  0  0  0  0  0  0  0  0
   -5.5104    7.6659    0.7277 C   0  0  0  0  0  0  0  0  0  0  0  0
   -6.7483    7.0200    1.1463 N   0  0  0  0  0  0  0  0  0  0  0  0
   -3.6872    6.4520   -0.5396 C   0  0  0  0  0  0  0  0  0  0  0  0
   -2.6154    5.5389   -0.6128 C   0  0  0  0  0  0  0  0  0  0  0  0
   -1.9268    5.3322   -1.9497 C   0  0  0  0  0  0  0  0  0  0  0  0
   -2.4338    4.1380   -2.5418 O   0  0  0  0  0  0  0  0  0  0  0  0
   -0.3783    5.3499   -1.9103 C   0  0  0  0  0  0  0  0  0  0  0  0
    0.2766    4.5104   -2.5316 O   0  0  0  0  0  0  0  0  0  0  0  0
    0.1950    6.4011   -1.2167 N   0  0  0  0  0  0  0  0  0  0  0  0
    1.6304    6.4205   -0.9911 C   0  0  0  0  0  0  0  0  0  0  0  0
    2.1102    7.7904   -0.5133 C   0  0  0  0  0  0  0  0  0  0  0  0
    3.5744    7.8106   -0.2149 C   0  0  0  0  0  0  0  0  0  0  0  0
    4.5792    8.2186   -1.0704 C   0  0  0  0  0  0  0  0  0  0  0  0
    5.7777    8.0798   -0.4240 N   0  0  0  0  0  0  0  0  0  0  0  0
    5.5803    7.5888    0.8450 C   0  0  0  0  0  0  0  0  0  0  0  0
    6.5074    7.2918    1.8512 C   0  0  0  0  0  0  0  0  0  0  0  0
    6.0139    6.7951    3.0610 C   0  0  0  0  0  0  0  0  0  0  0  0
    4.6480    6.6040    3.2539 C   0  0  0  0  0  0  0  0  0  0  0  0
    3.7349    6.9064    2.2369 C   0  0  0  0  0  0  0  0  0  0  0  0
    4.2063    7.4097    1.0066 C   0  0  0  0  0  0  0  0  0  0  0  0
  1  2  1  0
  2  3  1  0
  3  4  2  0
  4  5  1  0
  5  6  2  0
  6  7  1  0
  7  8  1  0
  6  9  1  0
  9 10  2  0
 10 11  1  0
 11 12  1  0
 11 13  1  0
 13 14  2  0
 13 15  1  0
 15 16  1  0
 16 17  1  0
 17 18  1  0
 18 19  2  0
 19 20  1  0
 20 21  1  0
 21 22  2  0
 22 23  1  0
 23 24  2  0
 24 25  1  0
 25 26  2  0
 10  3  1  0
 26 18  1  0
 26 21  1  0
M  END
$$$$
