
     RDKit          3D

 30 33  0  0  0  0  0  0  0  0999 V2000
  -37.9061    1.9001   22.5884 C   0  0  0  0  0  0  0  0  0  0  0  0
  -38.4640    0.9037   21.6874 N   0  0  0  0  0  0  0  0  0  0  0  0
  -39.1866   -0.1341   22.4332 C   0  0  0  0  0  0  0  0  0  0  0  0
  -39.7509   -1.1958   21.5096 C   0  0  0  0  0  0  0  0  0  0  0  0
  -40.8138   -0.8452   20.6535 C   0  0  0  0  0  0  0  0  0  0  0  0
  -41.3747   -1.7731   19.7728 C   0  0  0  0  0  0  0  0  0  0  0  0
  -40.8858   -3.0736   19.7350 C   0  0  0  0  0  0  0  0  0  0  0  0
  -41.3361   -4.0805   18.9253 O   0  0  0  0  0  0  0  0  0  0  0  0
  -42.4172   -3.7706   18.0553 C   0  0  0  0  0  0  0  0  0  0  0  0
  -39.8374   -3.4337   20.5871 C   0  0  0  0  0  0  0  0  0  0  0  0
  -39.2547   -2.5153   21.4802 C   0  0  0  0  0  0  0  0  0  0  0  0
  -38.2178   -2.9072   22.3490 N   0  0  0  0  0  0  0  0  0  0  0  0
  -38.6794   -3.7364   23.4789 C   0  0  0  0  0  0  0  0  0  0  0  0
  -38.5019   -5.2225   23.2229 C   0  0  0  0  0  0  0  0  0  0  0  0
  -39.2686   -6.0657   23.6922 O   0  0  0  0  0  0  0  0  0  0  0  0
  -37.3062   -5.6370   22.3997 C   0  0  0  0  0  0  0  0  0  0  0  0
  -36.3026   -4.4964   22.3151 C   0  0  0  0  0  0  0  0  0  0  0  0
  -36.9368   -3.2455   21.6826 C   0  0  0  0  0  0  0  0  0  0  0  0
  -36.0071   -2.0210   21.7830 C   0  0  0  0  0  0  0  0  0  0  0  0
  -34.6983   -2.1872   21.0121 C   0  0  0  0  0  0  0  0  0  0  0  0
  -33.9157   -0.9667   21.1263 N   0  0  0  0  0  0  0  0  0  0  0  0
  -32.7136   -0.9587   20.4111 C   0  0  0  0  0  0  0  0  0  0  0  0
  -32.0236   -2.1106   20.1866 N   0  0  0  0  0  0  0  0  0  0  0  0
  -30.8531   -2.0490   19.5132 C   0  0  0  0  0  0  0  0  0  0  0  0
  -30.2392   -0.9658   18.9949 N   0  0  0  0  0  0  0  0  0  0  0  0
  -30.9598    0.1379   19.2337 C   0  0  0  0  0  0  0  0  0  0  0  0
  -30.6537    1.4140   18.8606 N   0  0  0  0  0  0  0  0  0  0  0  0
  -31.6627    2.2266   19.3015 C   0  0  0  0  0  0  0  0  0  0  0  0
  -32.5972    1.5502   19.9361 N   0  0  0  0  0  0  0  0  0  0  0  0
  -32.1641    0.2372   19.9076 C   0  0  0  0  0  0  0  0  0  0  0  0
  1  2  1  0
  2  3  1  0
  3  4  1  0
  4  5  2  0
  5  6  1  0
  6  7  2  0
  7  8  1  0
  8  9  1  0
  7 10  1  0
 10 11  2  0
 11 12  1  0
 12 13  1  0
 13 14  1  0
 14 15  2  0
 14 16  1  0
 16 17  1  0
 17 18  1  0
 18 19  1  0
 19 20  1  0
 20 21  1  0
 21 22  1  0
 22 23  2  0
 23 24  1  0
 24 25  2  0
 25 26  1  0
 26 27  1  0
 27 28  1  0
 28 29  2  0
 29 30  1  0
 11  4  1  0
 18 12  1  0
 30 22  1  0
 30 26  2  0
M  END
$$$$
