
     RDKit          3D

 26 28  0  0  0  0  0  0  0  0999 V2000
   -2.6560   -4.4254   85.7091 C   0  0  0  0  0  0  0  0  0  0  0  0
   -2.1090   -3.4212   84.8344 N   0  0  0  0  0  0  0  0  0  0  0  0
   -1.1384   -2.5487   85.2714 C   0  0  0  0  0  0  0  0  0  0  0  0
   -0.6187   -2.6140   86.3752 O   0  0  0  0  0  0  0  0  0  0  0  0
   -0.7410   -1.5203   84.2336 C   0  0  0  0  0  0  0  0  0  0  0  0
   -1.4402   -0.1935   84.4204 C   0  0  0  0  0  0  0  0  0  0  0  0
   -0.8328    0.7479   85.2696 C   0  0  0  0  0  0  0  0  0  0  0  0
   -1.4149    1.9941   85.5018 C   0  0  0  0  0  0  0  0  0  0  0  0
   -2.6157    2.3209   84.8849 C   0  0  0  0  0  0  0  0  0  0  0  0
   -3.2879    3.5051   85.0114 O   0  0  0  0  0  0  0  0  0  0  0  0
   -2.6702    4.5078   85.8088 C   0  0  0  0  0  0  0  0  0  0  0  0
   -3.2349    1.3842   84.0517 C   0  0  0  0  0  0  0  0  0  0  0  0
   -2.6804    0.1125   83.8151 C   0  0  0  0  0  0  0  0  0  0  0  0
   -3.2997   -0.8334   82.9490 N   0  0  0  0  0  0  0  0  0  0  0  0
   -2.8155   -0.5686   81.5665 C   0  0  0  0  0  0  0  0  0  0  0  0
   -3.3313   -1.5984   80.5682 C   0  0  0  0  0  0  0  0  0  0  0  0
   -2.7781   -1.7534   79.4634 O   0  0  0  0  0  0  0  0  0  0  0  0
   -4.6587   -2.2801   80.8450 C   0  0  0  0  0  0  0  0  0  0  0  0
   -5.1284   -2.2434   82.2974 C   0  0  0  0  0  0  0  0  0  0  0  0
   -4.7885   -0.9009   82.9883 C   0  0  0  0  0  0  0  0  0  0  0  0
   -5.5336   -0.7301   84.2363 N   0  0  0  0  0  0  0  0  0  0  0  0
   -6.9313   -0.3535   84.0887 C   0  0  0  0  0  0  0  0  0  0  0  0
   -7.4685    0.1516   85.4266 C   0  0  0  0  0  0  0  0  0  0  0  0
   -7.2981   -0.8647   86.5560 C   0  0  0  0  0  0  0  0  0  0  0  0
   -6.4628   -2.0682   86.1359 C   0  0  0  0  0  0  0  0  0  0  0  0
   -5.2345   -1.6645   85.3170 C   0  0  0  0  0  0  0  0  0  0  0  0
  1  2  1  0
  2  3  1  0
  3  4  2  0
  3  5  1  0
  5  6  1  0
  6  7  2  0
  7  8  1  0
  8  9  2  0
  9 10  1  0
 10 11  1  0
  9 12  1  0
 12 13  2  0
 13 14  1  0
 14 15  1  0
 15 16  1  0
 16 17  2  0
 16 18  1  0
 18 19  1  0
 19 20  1  0
 20 21  1  0
 21 22  1  0
 22 23  1  0
 23 24  1  0
 24 25  1  0
 25 26  1  0
 13  6  1  0
 20 14  1  0
 26 21  1  0
M  END
$$$$
