
     RDKit          3D

 23 25  0  0  0  0  0  0  0  0999 V2000
   10.5524   10.2530  -19.2797 N   0  0  0  0  0  0  0  0  0  0  0  0
   11.7395   10.3173  -18.5942 C   0  0  0  0  0  0  0  0  0  0  0  0
   12.7860   10.5058  -19.2012 O   0  0  0  0  0  0  0  0  0  0  0  0
   11.6468   10.2023  -17.1067 C   0  0  0  0  0  0  0  0  0  0  0  0
   10.7340    9.2468  -16.6057 C   0  0  0  0  0  0  0  0  0  0  0  0
   10.5947    9.0460  -15.2358 C   0  0  0  0  0  0  0  0  0  0  0  0
   11.3702    9.7945  -14.3673 C   0  0  0  0  0  0  0  0  0  0  0  0
   11.2407    9.6148  -13.0457 F   0  0  0  0  0  0  0  0  0  0  0  0
   12.2852   10.7325  -14.8420 C   0  0  0  0  0  0  0  0  0  0  0  0
   12.4593   10.9641  -16.2227 C   0  0  0  0  0  0  0  0  0  0  0  0
   13.3801   11.9328  -16.6756 N   0  0  0  0  0  0  0  0  0  0  0  0
   12.7872   13.2329  -16.9995 C   0  0  0  0  0  0  0  0  0  0  0  0
   12.1319   13.1298  -18.2471 O   0  0  0  0  0  0  0  0  0  0  0  0
   13.8357   14.3382  -17.1386 C   0  0  0  0  0  0  0  0  0  0  0  0
   14.6774   14.4980  -15.8784 C   0  0  0  0  0  0  0  0  0  0  0  0
   14.7933   13.1813  -15.1111 C   0  0  0  0  0  0  0  0  0  0  0  0
   14.7368   11.9477  -16.0573 C   0  0  0  0  0  0  0  0  0  0  0  0
   15.8960   11.9099  -16.9817 N   0  0  0  0  0  0  0  0  0  0  0  0
   15.7700   10.7988  -17.9464 C   0  0  0  0  0  0  0  0  0  0  0  0
   17.0026    9.8969  -18.0692 C   0  0  0  0  0  0  0  0  0  0  0  0
   18.2832   10.6924  -18.2645 C   0  0  0  0  0  0  0  0  0  0  0  0
   18.3250   11.9397  -17.3834 C   0  0  0  0  0  0  0  0  0  0  0  0
   17.2085   11.9661  -16.3376 C   0  0  0  0  0  0  0  0  0  0  0  0
  1  2  1  0
  2  3  2  0
  2  4  1  0
  4  5  2  0
  5  6  1  0
  6  7  2  0
  7  8  1  0
  7  9  1  0
  9 10  2  0
 10 11  1  0
 11 12  1  0
 12 13  1  0
 12 14  1  0
 14 15  1  0
 15 16  1  0
 16 17  1  0
 17 18  1  0
 18 19  1  0
 19 20  1  0
 20 21  1  0
 21 22  1  0
 22 23  1  0
 10  4  1  0
 17 11  1  0
 23 18  1  0
M  END
$$$$
