
     RDKit          3D

 23 25  0  0  0  0  0  0  0  0999 V2000
    4.9942   -2.9019   33.0063 N   0  0  0  0  0  0  0  0  0  0  0  0
    3.7721   -2.8615   33.8296 C   0  0  0  0  0  0  0  0  0  0  0  0
    3.8656   -1.7557   34.8791 C   0  0  0  0  0  0  0  0  0  0  0  0
    4.8719   -1.0513   35.0001 O   0  0  0  0  0  0  0  0  0  0  0  0
    2.6552   -1.5562   35.7635 C   0  0  0  0  0  0  0  0  0  0  0  0
    2.6227   -2.5316   36.9120 C   0  0  0  0  0  0  0  0  0  0  0  0
    3.4448   -2.2526   38.0194 C   0  0  0  0  0  0  0  0  0  0  0  0
    3.5023   -3.1520   39.0664 C   0  0  0  0  0  0  0  0  0  0  0  0
    2.8113   -4.3029   39.0885 N   0  0  0  0  0  0  0  0  0  0  0  0
    2.0278   -4.5522   38.0097 C   0  0  0  0  0  0  0  0  0  0  0  0
    1.8718   -3.7221   36.8874 C   0  0  0  0  0  0  0  0  0  0  0  0
    1.0412   -4.0470   35.8103 N   0  0  0  0  0  0  0  0  0  0  0  0
    1.0151   -5.4696   35.4182 C   0  0  0  0  0  0  0  0  0  0  0  0
    0.1188   -5.7005   34.1988 C   0  0  0  0  0  0  0  0  0  0  0  0
    0.0451   -4.4647   33.3192 C   0  0  0  0  0  0  0  0  0  0  0  0
   -0.4529   -3.2398   34.1018 C   0  0  0  0  0  0  0  0  0  0  0  0
   -0.2655   -3.3442   35.6559 C   0  0  0  0  0  0  0  0  0  0  0  0
   -0.5653   -2.0645   36.3609 N   0  0  0  0  0  0  0  0  0  0  0  0
   -1.5932   -1.2241   35.7280 C   0  0  0  0  0  0  0  0  0  0  0  0
   -1.7759    0.1078   36.4644 C   0  0  0  0  0  0  0  0  0  0  0  0
   -2.0976   -0.0996   37.9356 C   0  0  0  0  0  0  0  0  0  0  0  0
   -1.0726   -1.0304   38.5662 C   0  0  0  0  0  0  0  0  0  0  0  0
   -0.9445   -2.3268   37.7654 C   0  0  0  0  0  0  0  0  0  0  0  0
  1  2  1  0
  2  3  1  0
  3  4  2  0
  3  5  1  0
  5  6  1  0
  6  7  2  0
  7  8  1  0
  8  9  2  0
  9 10  1  0
 10 11  2  0
 11 12  1  0
 12 13  1  0
 13 14  1  0
 14 15  1  0
 15 16  1  0
 16 17  1  0
 17 18  1  0
 18 19  1  0
 19 20  1  0
 20 21  1  0
 21 22  1  0
 22 23  1  0
 11  6  1  0
 17 12  1  0
 23 18  1  0
M  END
$$$$
