
     RDKit          3D

 22 23  0  0  0  0  0  0  0  0999 V2000
  -18.9862  -13.9256   -4.2412 N   0  0  0  0  0  0  0  0  0  0  0  0
  -17.9869  -14.4749   -5.1617 C   0  0  0  0  0  0  0  0  0  0  0  0
  -16.8531  -13.4849   -5.4036 C   0  0  0  0  0  0  0  0  0  0  0  0
  -15.6717  -13.8338   -5.3783 O   0  0  0  0  0  0  0  0  0  0  0  0
  -17.1781  -12.0699   -5.7464 C   0  0  0  0  0  0  0  0  0  0  0  0
  -18.1549  -11.8264   -6.7270 C   0  0  0  0  0  0  0  0  0  0  0  0
  -18.4457  -10.5198   -7.1195 C   0  0  0  0  0  0  0  0  0  0  0  0
  -17.7574   -9.4632   -6.5403 C   0  0  0  0  0  0  0  0  0  0  0  0
  -18.0317   -8.2097   -6.9228 F   0  0  0  0  0  0  0  0  0  0  0  0
  -16.7889   -9.6859   -5.5671 C   0  0  0  0  0  0  0  0  0  0  0  0
  -16.4880  -10.9938   -5.1446 C   0  0  0  0  0  0  0  0  0  0  0  0
  -15.4587  -11.1773   -4.0563 C   0  0  0  0  0  0  0  0  0  0  0  0
  -14.2282  -11.7228   -4.5735 N   0  0  0  0  0  0  0  0  0  0  0  0
  -13.0389  -11.5320   -3.9060 C   0  0  0  0  0  0  0  0  0  0  0  0
  -12.9184  -10.7750   -2.9489 O   0  0  0  0  0  0  0  0  0  0  0  0
  -11.8713  -12.3304   -4.3827 C   0  0  0  0  0  0  0  0  0  0  0  0
  -11.8198  -12.8894   -5.6690 C   0  0  0  0  0  0  0  0  0  0  0  0
  -10.7001  -13.6250   -6.0675 C   0  0  0  0  0  0  0  0  0  0  0  0
   -9.6369  -13.7932   -5.1869 C   0  0  0  0  0  0  0  0  0  0  0  0
   -8.5660  -14.4981   -5.5740 F   0  0  0  0  0  0  0  0  0  0  0  0
   -9.6665  -13.2358   -3.9142 C   0  0  0  0  0  0  0  0  0  0  0  0
  -10.7833  -12.5002   -3.5119 C   0  0  0  0  0  0  0  0  0  0  0  0
  1  2  1  0
  2  3  1  0
  3  4  2  0
  3  5  1  0
  5  6  2  0
  6  7  1  0
  7  8  2  0
  8  9  1  0
  8 10  1  0
 10 11  2  0
 11 12  1  0
 12 13  1  0
 13 14  1  0
 14 15  2  0
 14 16  1  0
 16 17  2  0
 17 18  1  0
 18 19  2  0
 19 20  1  0
 19 21  1  0
 21 22  2  0
 11  5  1  0
 22 16  1  0
M  END
$$$$
