
     RDKit          3D

 25 26  0  0  0  0  0  0  0  0999 V2000
   36.8912  -15.9115  -43.0909 N   0  0  0  0  0  0  0  0  0  0  0  0
   35.7755  -15.1313  -43.6259 C   0  0  0  0  0  0  0  0  0  0  0  0
   34.7629  -14.7866  -42.5393 C   0  0  0  0  0  0  0  0  0  0  0  0
   33.5971  -13.9787  -43.0829 C   0  0  0  0  0  0  0  0  0  0  0  0
   33.5283  -13.6382  -44.2626 O   0  0  0  0  0  0  0  0  0  0  0  0
   32.5399  -13.5843  -42.0617 C   0  0  0  0  0  0  0  0  0  0  0  0
   31.2620  -13.0235  -42.6847 C   0  0  0  0  0  0  0  0  0  0  0  0
   30.4127  -14.1166  -43.3457 C   0  0  0  0  0  0  0  0  0  0  0  0
   29.1735  -13.5638  -44.0606 C   0  0  0  0  0  0  0  0  0  0  0  0
   28.1619  -12.9005  -43.1451 C   0  0  0  0  0  0  0  0  0  0  0  0
   28.0401  -11.4971  -43.2063 C   0  0  0  0  0  0  0  0  0  0  0  0
   27.1580  -10.8169  -42.3719 C   0  0  0  0  0  0  0  0  0  0  0  0
   26.3950  -11.5431  -41.4633 C   0  0  0  0  0  0  0  0  0  0  0  0
   25.2622  -10.7056  -40.3920 S   0  0  0  0  0  0  0  0  0  0  0  0
   26.1946  -10.5230  -38.9996 N   0  0  0  0  0  0  0  0  0  0  0  0
   25.0534   -9.3669  -40.8940 O   0  0  0  0  0  0  0  0  0  0  0  0
   24.1714  -11.5984  -40.0819 O   0  0  0  0  0  0  0  0  0  0  0  0
   26.4892  -12.9368  -41.3966 C   0  0  0  0  0  0  0  0  0  0  0  0
   27.3734  -13.6392  -42.2295 C   0  0  0  0  0  0  0  0  0  0  0  0
   27.4533  -15.0382  -42.1894 N   0  0  0  0  0  0  0  0  0  0  0  0
   26.6612  -15.7103  -43.2386 C   0  0  0  0  0  0  0  0  0  0  0  0
   25.7320  -16.7692  -42.6499 C   0  0  0  0  0  0  0  0  0  0  0  0
   26.4967  -17.7984  -41.8168 C   0  0  0  0  0  0  0  0  0  0  0  0
   27.6684  -17.1841  -41.0479 C   0  0  0  0  0  0  0  0  0  0  0  0
   27.4903  -15.6791  -40.8685 C   0  0  0  0  0  0  0  0  0  0  0  0
  1  2  1  0
  2  3  1  0
  3  4  1  0
  4  5  2  0
  4  6  1  0
  6  7  1  0
  7  8  1  0
  8  9  1  0
  9 10  1  0
 10 11  2  0
 11 12  1  0
 12 13  2  0
 13 14  1  0
 14 15  1  0
 14 16  2  0
 14 17  2  0
 13 18  1  0
 18 19  2  0
 19 20  1  0
 20 21  1  0
 21 22  1  0
 22 23  1  0
 23 24  1  0
 24 25  1  0
 19 10  1  0
 25 20  1  0
M  END
$$$$
