
     RDKit          3D

 31 34  0  0  0  0  0  0  0  0999 V2000
  -28.6772   -1.0260   -2.4351 N   0  0  0  0  0  0  0  0  0  0  0  0
  -27.4828   -0.5939   -1.3229 S   0  0  0  0  0  0  0  0  0  0  0  0
  -26.7481    0.4427   -2.0080 O   0  0  0  0  0  0  0  0  0  0  0  0
  -28.1850   -0.3839   -0.0797 O   0  0  0  0  0  0  0  0  0  0  0  0
  -26.4754   -2.0387   -1.1564 C   0  0  0  0  0  0  0  0  0  0  0  0
  -27.1072   -3.2619   -1.4533 C   0  0  0  0  0  0  0  0  0  0  0  0
  -26.3512   -4.4122   -1.4940 C   0  0  0  0  0  0  0  0  0  0  0  0
  -25.0320   -4.4209   -1.2675 N   0  0  0  0  0  0  0  0  0  0  0  0
  -24.4626   -3.2282   -0.9579 C   0  0  0  0  0  0  0  0  0  0  0  0
  -25.1024   -1.9811   -0.8571 C   0  0  0  0  0  0  0  0  0  0  0  0
  -24.3604   -0.8760   -0.4567 N   0  0  0  0  0  0  0  0  0  0  0  0
  -24.8451    0.0627    0.5712 C   0  0  0  0  0  0  0  0  0  0  0  0
  -24.8979    1.5019    0.0700 C   0  0  0  0  0  0  0  0  0  0  0  0
  -25.6539    2.3294    0.5873 O   0  0  0  0  0  0  0  0  0  0  0  0
  -23.8599    1.9441   -0.9423 C   0  0  0  0  0  0  0  0  0  0  0  0
  -23.4562    0.8390   -1.9130 C   0  0  0  0  0  0  0  0  0  0  0  0
  -23.1486   -0.4924   -1.2075 C   0  0  0  0  0  0  0  0  0  0  0  0
  -21.9000   -0.3597   -0.3071 C   0  0  0  0  0  0  0  0  0  0  0  0
  -21.4404   -1.6830    0.3043 C   0  0  0  0  0  0  0  0  0  0  0  0
  -20.2320   -1.4711    1.1089 N   0  0  0  0  0  0  0  0  0  0  0  0
  -19.0234   -2.0588    0.5070 C   0  0  0  0  0  0  0  0  0  0  0  0
  -18.5619   -1.3712   -0.7869 C   0  0  0  0  0  0  0  0  0  0  0  0
  -17.2797   -1.9473   -1.3047 C   0  0  0  0  0  0  0  0  0  0  0  0
  -17.1525   -2.9458   -2.2515 C   0  0  0  0  0  0  0  0  0  0  0  0
  -15.8187   -3.1845   -2.4477 N   0  0  0  0  0  0  0  0  0  0  0  0
  -15.0639   -2.3621   -1.6451 C   0  0  0  0  0  0  0  0  0  0  0  0
  -13.6737   -2.2590   -1.5122 C   0  0  0  0  0  0  0  0  0  0  0  0
  -13.1774   -1.3185   -0.6047 C   0  0  0  0  0  0  0  0  0  0  0  0
  -14.0386   -0.5149    0.1383 C   0  0  0  0  0  0  0  0  0  0  0  0
  -15.4260   -0.6312   -0.0072 C   0  0  0  0  0  0  0  0  0  0  0  0
  -15.9530   -1.5720   -0.9161 C   0  0  0  0  0  0  0  0  0  0  0  0
  1  2  1  0
  2  3  2  0
  2  4  2  0
  2  5  1  0
  5  6  2  0
  6  7  1  0
  7  8  2  0
  8  9  1  0
  9 10  2  0
 10 11  1  0
 11 12  1  0
 12 13  1  0
 13 14  2  0
 13 15  1  0
 15 16  1  0
 16 17  1  0
 17 18  1  0
 18 19  1  0
 19 20  1  0
 20 21  1  0
 21 22  1  0
 22 23  1  0
 23 24  2  0
 24 25  1  0
 25 26  1  0
 26 27  2  0
 27 28  1  0
 28 29  2  0
 29 30  1  0
 30 31  2  0
 10  5  1  0
 17 11  1  0
 31 23  1  0
 31 26  1  0
M  END
$$$$
