
     RDKit          3D

 23 25  0  0  0  0  0  0  0  0999 V2000
  -28.0480    2.5380   29.0529 C   0  0  0  0  0  0  0  0  0  0  0  0
  -26.9037    1.8426   29.5328 O   0  0  0  0  0  0  0  0  0  0  0  0
  -26.1045    2.5095   30.4203 C   0  0  0  0  0  0  0  0  0  0  0  0
  -26.2225    3.8460   30.7824 C   0  0  0  0  0  0  0  0  0  0  0  0
  -25.3309    4.3955   31.7062 C   0  0  0  0  0  0  0  0  0  0  0  0
  -24.3121    3.6203   32.2968 C   0  0  0  0  0  0  0  0  0  0  0  0
  -23.4096    4.2661   33.3269 C   0  0  0  0  0  0  0  0  0  0  0  0
  -24.1554    4.7567   34.4925 N   0  0  0  0  0  0  0  0  0  0  0  0
  -24.1649    2.2727   31.9069 C   0  0  0  0  0  0  0  0  0  0  0  0
  -23.1061    1.4911   32.4134 N   0  0  0  0  0  0  0  0  0  0  0  0
  -23.5188    0.2621   33.1104 C   0  0  0  0  0  0  0  0  0  0  0  0
  -23.4456   -0.9723   32.2304 C   0  0  0  0  0  0  0  0  0  0  0  0
  -24.2230   -1.9195   32.3613 O   0  0  0  0  0  0  0  0  0  0  0  0
  -22.3450   -1.0136   31.2002 C   0  0  0  0  0  0  0  0  0  0  0  0
  -21.2940    0.0397   31.5190 C   0  0  0  0  0  0  0  0  0  0  0  0
  -21.9222    1.4588   31.5162 C   0  0  0  0  0  0  0  0  0  0  0  0
  -20.9097    2.5042   31.7232 N   0  0  0  0  0  0  0  0  0  0  0  0
  -20.0968    2.3671   32.9229 C   0  0  0  0  0  0  0  0  0  0  0  0
  -19.4388    3.7082   33.2712 C   0  0  0  0  0  0  0  0  0  0  0  0
  -18.9871    4.5001   32.0413 C   0  0  0  0  0  0  0  0  0  0  0  0
  -18.8339    3.5919   30.8293 C   0  0  0  0  0  0  0  0  0  0  0  0
  -20.1399    2.8436   30.5253 C   0  0  0  0  0  0  0  0  0  0  0  0
  -25.0779    1.7393   30.9758 C   0  0  0  0  0  0  0  0  0  0  0  0
  1  2  1  0
  2  3  1  0
  3  4  2  0
  4  5  1  0
  5  6  2  0
  6  7  1  0
  7  8  1  0
  6  9  1  0
  9 10  1  0
 10 11  1  0
 11 12  1  0
 12 13  2  0
 12 14  1  0
 14 15  1  0
 15 16  1  0
 16 17  1  0
 17 18  1  0
 18 19  1  0
 19 20  1  0
 20 21  1  0
 21 22  1  0
  9 23  2  0
 23  3  1  0
 16 10  1  0
 22 17  1  0
M  END
$$$$
