
     RDKit          3D

 22 23  0  0  0  0  0  0  0  0999 V2000
   10.5267   14.4713  -13.4747 C   0  0  0  0  0  0  0  0  0  0  0  0
   10.6119   13.3384  -12.5619 N   0  0  0  0  0  0  0  0  0  0  0  0
   11.9605   12.7645  -12.5650 C   0  0  0  0  0  0  0  0  0  0  0  0
   12.0144   11.5777  -11.5969 C   0  0  0  0  0  0  0  0  0  0  0  0
   13.3933   10.8950  -11.5842 C   0  0  0  0  0  0  0  0  0  0  0  0
   14.5362   11.7512  -11.0650 C   0  0  0  0  0  0  0  0  0  0  0  0
   14.3780   12.4082   -9.8374 C   0  0  0  0  0  0  0  0  0  0  0  0
   15.3746   13.2380   -9.3255 C   0  0  0  0  0  0  0  0  0  0  0  0
   16.5712   13.4360  -10.0203 C   0  0  0  0  0  0  0  0  0  0  0  0
   17.5935   14.2176   -9.5370 O   0  0  0  0  0  0  0  0  0  0  0  0
   17.4692   14.7545   -8.2290 C   0  0  0  0  0  0  0  0  0  0  0  0
   16.7858   12.7856  -11.2652 C   0  0  0  0  0  0  0  0  0  0  0  0
   17.9932   12.9291  -12.0099 N   0  0  0  0  0  0  0  0  0  0  0  0
   18.5066   14.2917  -12.1948 C   0  0  0  0  0  0  0  0  0  0  0  0
   19.4567   14.2766  -13.3982 C   0  0  0  0  0  0  0  0  0  0  0  0
   20.3298   13.0164  -13.4503 C   0  0  0  0  0  0  0  0  0  0  0  0
   20.4030   12.3212  -12.0940 C   0  0  0  0  0  0  0  0  0  0  0  0
   19.0098   11.9502  -11.5677 C   0  0  0  0  0  0  0  0  0  0  0  0
   15.7643   11.9104  -11.7540 C   0  0  0  0  0  0  0  0  0  0  0  0
   16.0006   11.1190  -12.9999 C   0  0  0  0  0  0  0  0  0  0  0  0
   16.5080   11.8008  -14.0710 N   0  0  0  0  0  0  0  0  0  0  0  0
   15.7788    9.9153  -13.0626 O   0  0  0  0  0  0  0  0  0  0  0  0
  1  2  1  0
  2  3  1  0
  3  4  1  0
  4  5  1  0
  5  6  1  0
  6  7  2  0
  7  8  1  0
  8  9  2  0
  9 10  1  0
 10 11  1  0
  9 12  1  0
 12 13  1  0
 13 14  1  0
 14 15  1  0
 15 16  1  0
 16 17  1  0
 17 18  1  0
 12 19  2  0
 19 20  1  0
 20 21  1  0
 20 22  2  0
 19  6  1  0
 18 13  1  0
M  END
$$$$
