
     RDKit          3D

 26 28  0  0  0  0  0  0  0  0999 V2000
   22.4248   -6.3328  -17.4311 C   0  0  0  0  0  0  0  0  0  0  0  0
   22.9323   -5.6248  -16.2644 N   0  0  0  0  0  0  0  0  0  0  0  0
   22.6340   -4.1843  -16.3070 C   0  0  0  0  0  0  0  0  0  0  0  0
   21.1548   -3.8585  -16.0550 C   0  0  0  0  0  0  0  0  0  0  0  0
   20.2879   -4.6713  -15.7477 O   0  0  0  0  0  0  0  0  0  0  0  0
   20.7896   -2.4250  -16.1919 C   0  0  0  0  0  0  0  0  0  0  0  0
   21.3681   -1.5776  -15.2255 C   0  0  0  0  0  0  0  0  0  0  0  0
   21.0905   -0.2123  -15.2089 C   0  0  0  0  0  0  0  0  0  0  0  0
   20.2270    0.3186  -16.1546 C   0  0  0  0  0  0  0  0  0  0  0  0
   19.8709    1.6346  -16.2694 O   0  0  0  0  0  0  0  0  0  0  0  0
   20.3205    2.5143  -15.2473 C   0  0  0  0  0  0  0  0  0  0  0  0
   19.6460   -0.5325  -17.1047 C   0  0  0  0  0  0  0  0  0  0  0  0
   19.8851   -1.9268  -17.1567 C   0  0  0  0  0  0  0  0  0  0  0  0
   19.2275   -2.6670  -18.1516 N   0  0  0  0  0  0  0  0  0  0  0  0
   19.8044   -3.9104  -18.6724 C   0  0  0  0  0  0  0  0  0  0  0  0
   19.4070   -4.1112  -20.1249 C   0  0  0  0  0  0  0  0  0  0  0  0
   20.1360   -4.6908  -20.9317 O   0  0  0  0  0  0  0  0  0  0  0  0
   18.0605   -3.5757  -20.5355 C   0  0  0  0  0  0  0  0  0  0  0  0
   17.1663   -3.4806  -19.3084 C   0  0  0  0  0  0  0  0  0  0  0  0
   17.7490   -2.4951  -18.2535 C   0  0  0  0  0  0  0  0  0  0  0  0
   16.9188   -2.4499  -17.0391 N   0  0  0  0  0  0  0  0  0  0  0  0
   15.5228   -2.0894  -17.2441 C   0  0  0  0  0  0  0  0  0  0  0  0
   14.8849   -1.6584  -15.9193 C   0  0  0  0  0  0  0  0  0  0  0  0
   15.2739   -2.5515  -14.7398 C   0  0  0  0  0  0  0  0  0  0  0  0
   15.9097   -3.8515  -15.2119 C   0  0  0  0  0  0  0  0  0  0  0  0
   17.1120   -3.5813  -16.1266 C   0  0  0  0  0  0  0  0  0  0  0  0
  1  2  1  0
  2  3  1  0
  3  4  1  0
  4  5  2  0
  4  6  1  0
  6  7  2  0
  7  8  1  0
  8  9  2  0
  9 10  1  0
 10 11  1  0
  9 12  1  0
 12 13  2  0
 13 14  1  0
 14 15  1  0
 15 16  1  0
 16 17  2  0
 16 18  1  0
 18 19  1  0
 19 20  1  0
 20 21  1  0
 21 22  1  0
 22 23  1  0
 23 24  1  0
 24 25  1  0
 25 26  1  0
 13  6  1  0
 20 14  1  0
 26 21  1  0
M  END
$$$$
