
     RDKit          3D

 22 23  0  0  0  0  0  0  0  0999 V2000
    3.7324   22.4650   -5.9499 C   0  0  0  0  0  0  0  0  0  0  0  0
    4.8534   23.2824   -6.2593 O   0  0  0  0  0  0  0  0  0  0  0  0
    4.6020   24.4426   -6.9385 C   0  0  0  0  0  0  0  0  0  0  0  0
    3.3492   24.9331   -7.2872 C   0  0  0  0  0  0  0  0  0  0  0  0
    3.2394   26.1415   -7.9820 C   0  0  0  0  0  0  0  0  0  0  0  0
    4.3764   26.8885   -8.3406 C   0  0  0  0  0  0  0  0  0  0  0  0
    4.1677   28.1934   -9.0783 C   0  0  0  0  0  0  0  0  0  0  0  0
    4.5159   28.1244  -10.5525 C   0  0  0  0  0  0  0  0  0  0  0  0
    5.3452   29.1137  -11.0053 N   0  0  0  0  0  0  0  0  0  0  0  0
    4.1026   27.2674  -11.3252 O   0  0  0  0  0  0  0  0  0  0  0  0
    5.6506   26.3903   -7.9979 C   0  0  0  0  0  0  0  0  0  0  0  0
    6.9466   27.0843   -8.3716 C   0  0  0  0  0  0  0  0  0  0  0  0
    7.6103   26.4745   -9.6136 C   0  0  0  0  0  0  0  0  0  0  0  0
    8.2747   25.2431   -9.3183 O   0  0  0  0  0  0  0  0  0  0  0  0
    9.5435   25.2732   -8.8152 C   0  0  0  0  0  0  0  0  0  0  0  0
   10.2932   26.4080   -8.5155 C   0  0  0  0  0  0  0  0  0  0  0  0
   11.5879   26.2793   -7.9945 C   0  0  0  0  0  0  0  0  0  0  0  0
   12.1342   25.0228   -7.7264 C   0  0  0  0  0  0  0  0  0  0  0  0
   13.4672   24.9039   -7.3187 N   0  0  0  0  0  0  0  0  0  0  0  0
   11.4022   23.8911   -8.0837 C   0  0  0  0  0  0  0  0  0  0  0  0
   10.1095   24.0154   -8.6016 C   0  0  0  0  0  0  0  0  0  0  0  0
    5.7382   25.1716   -7.2956 C   0  0  0  0  0  0  0  0  0  0  0  0
  1  2  1  0
  2  3  1  0
  3  4  2  0
  4  5  1  0
  5  6  2  0
  6  7  1  0
  7  8  1  0
  8  9  1  0
  8 10  2  0
  6 11  1  0
 11 12  1  0
 12 13  1  0
 13 14  1  0
 14 15  1  0
 15 16  2  0
 16 17  1  0
 17 18  2  0
 18 19  1  0
 18 20  1  0
 20 21  2  0
 11 22  2  0
 22  3  1  0
 21 15  1  0
M  END
$$$$
