
     RDKit          3D

 29 32  0  0  0  0  0  0  0  0999 V2000
    8.4122    5.7200  -24.0940 N   0  0  0  0  0  0  0  0  0  0  0  0
    8.2169    5.7559  -22.7002 C   0  0  0  0  0  0  0  0  0  0  0  0
    7.3979    6.7642  -22.1683 C   0  0  0  0  0  0  0  0  0  0  0  0
    7.0789    6.7893  -20.8108 C   0  0  0  0  0  0  0  0  0  0  0  0
    7.5495    5.7716  -19.9851 C   0  0  0  0  0  0  0  0  0  0  0  0
    7.1547    5.7648  -18.2604 S   0  0  0  0  0  0  0  0  0  0  0  0
    5.9765    4.5620  -18.1853 N   0  0  0  0  0  0  0  0  0  0  0  0
    8.3132    5.3110  -17.5295 O   0  0  0  0  0  0  0  0  0  0  0  0
    6.4661    6.9945  -17.9405 O   0  0  0  0  0  0  0  0  0  0  0  0
    8.3314    4.7358  -20.5012 C   0  0  0  0  0  0  0  0  0  0  0  0
    8.6523    4.6966  -21.8651 C   0  0  0  0  0  0  0  0  0  0  0  0
    9.3989    3.5971  -22.3135 N   0  0  0  0  0  0  0  0  0  0  0  0
    8.6732    2.6503  -23.1662 C   0  0  0  0  0  0  0  0  0  0  0  0
    9.4996    1.3733  -23.2994 C   0  0  0  0  0  0  0  0  0  0  0  0
   10.8870    1.6395  -23.8871 C   0  0  0  0  0  0  0  0  0  0  0  0
   11.2673    3.1198  -23.8669 C   0  0  0  0  0  0  0  0  0  0  0  0
   10.8366    3.8374  -22.5737 C   0  0  0  0  0  0  0  0  0  0  0  0
   11.6506    3.3762  -21.3224 C   0  0  0  0  0  0  0  0  0  0  0  0
   13.1175    3.4502  -21.3848 N   0  0  0  0  0  0  0  0  0  0  0  0
   13.6026    4.8234  -21.5371 C   0  0  0  0  0  0  0  0  0  0  0  0
   15.0946    4.8352  -21.5102 C   0  0  0  0  0  0  0  0  0  0  0  0
   15.9096    5.2043  -22.4782 N   0  0  0  0  0  0  0  0  0  0  0  0
   17.1771    5.0182  -21.9804 C   0  0  0  0  0  0  0  0  0  0  0  0
   18.4210    5.2485  -22.5856 C   0  0  0  0  0  0  0  0  0  0  0  0
   19.5846    4.9715  -21.8564 C   0  0  0  0  0  0  0  0  0  0  0  0
   19.5106    4.4753  -20.5518 C   0  0  0  0  0  0  0  0  0  0  0  0
   18.2779    4.2382  -19.9319 C   0  0  0  0  0  0  0  0  0  0  0  0
   17.1355    4.5245  -20.6817 C   0  0  0  0  0  0  0  0  0  0  0  0
   15.7981    4.4110  -20.4091 N   0  0  0  0  0  0  0  0  0  0  0  0
  1  2  1  0
  2  3  2  0
  3  4  1  0
  4  5  2  0
  5  6  1  0
  6  7  1  0
  6  8  2  0
  6  9  2  0
  5 10  1  0
 10 11  2  0
 11 12  1  0
 12 13  1  0
 13 14  1  0
 14 15  1  0
 15 16  1  0
 16 17  1  0
 17 18  1  0
 18 19  1  0
 19 20  1  0
 20 21  1  0
 21 22  2  0
 22 23  1  0
 23 24  2  0
 24 25  1  0
 25 26  2  0
 26 27  1  0
 27 28  2  0
 28 29  1  0
 11  2  1  0
 17 12  1  0
 29 21  1  0
 28 23  1  0
M  END
$$$$
