
     RDKit          3D

 26 29  0  0  0  0  0  0  0  0999 V2000
   -6.0140    5.0508  -20.6599 N   0  0  0  0  0  0  0  0  0  0  0  0
   -5.4376    5.7578  -19.5763 C   0  0  0  0  0  0  0  0  0  0  0  0
   -5.4106    7.1504  -19.5920 C   0  0  0  0  0  0  0  0  0  0  0  0
   -4.7479    7.8077  -18.5698 C   0  0  0  0  0  0  0  0  0  0  0  0
   -4.0938    7.1805  -17.5712 N   0  0  0  0  0  0  0  0  0  0  0  0
   -4.0905    5.8246  -17.6089 C   0  0  0  0  0  0  0  0  0  0  0  0
   -4.7253    5.0505  -18.5823 C   0  0  0  0  0  0  0  0  0  0  0  0
   -4.6671    3.6412  -18.6550 N   0  0  0  0  0  0  0  0  0  0  0  0
   -4.7963    2.9145  -17.3828 C   0  0  0  0  0  0  0  0  0  0  0  0
   -4.5044    1.4182  -17.5582 C   0  0  0  0  0  0  0  0  0  0  0  0
   -4.7193    0.9535  -18.9917 C   0  0  0  0  0  0  0  0  0  0  0  0
   -3.8686    1.7561  -19.9847 C   0  0  0  0  0  0  0  0  0  0  0  0
   -3.5649    3.1904  -19.5127 C   0  0  0  0  0  0  0  0  0  0  0  0
   -2.3507    3.2034  -18.7584 O   0  0  0  0  0  0  0  0  0  0  0  0
   -1.2020    3.5390  -19.5443 C   0  0  0  0  0  0  0  0  0  0  0  0
   -1.0347    5.0601  -19.6819 C   0  0  0  0  0  0  0  0  0  0  0  0
    0.0030    5.4099  -20.6456 N   0  0  0  0  0  0  0  0  0  0  0  0
    1.3044    5.4918  -20.1355 C   0  0  0  0  0  0  0  0  0  0  0  0
    1.7179    4.6784  -19.1277 N   0  0  0  0  0  0  0  0  0  0  0  0
    2.9897    4.7851  -18.6812 C   0  0  0  0  0  0  0  0  0  0  0  0
    3.9594    5.6210  -19.1044 N   0  0  0  0  0  0  0  0  0  0  0  0
    3.5036    6.4020  -20.0929 C   0  0  0  0  0  0  0  0  0  0  0  0
    4.1965    7.3677  -20.7625 N   0  0  0  0  0  0  0  0  0  0  0  0
    3.3482    7.9221  -21.6826 C   0  0  0  0  0  0  0  0  0  0  0  0
    2.1528    7.3710  -21.6447 N   0  0  0  0  0  0  0  0  0  0  0  0
    2.2393    6.4098  -20.6544 C   0  0  0  0  0  0  0  0  0  0  0  0
  1  2  1  0
  2  3  2  0
  3  4  1  0
  4  5  2  0
  5  6  1  0
  6  7  2  0
  7  8  1  0
  8  9  1  0
  9 10  1  0
 10 11  1  0
 11 12  1  0
 12 13  1  0
 13 14  1  0
 14 15  1  0
 15 16  1  0
 16 17  1  0
 17 18  1  0
 18 19  2  0
 19 20  1  0
 20 21  2  0
 21 22  1  0
 22 23  1  0
 23 24  1  0
 24 25  2  0
 25 26  1  0
  7  2  1  0
 13  8  1  0
 26 18  1  0
 26 22  2  0
M  END
$$$$
