
     RDKit          3D

 26 28  0  0  0  0  0  0  0  0999 V2000
   20.3023    7.2743  -10.7257 C   0  0  0  0  0  0  0  0  0  0  0  0
   19.8290    6.4466  -11.8049 N   0  0  0  0  0  0  0  0  0  0  0  0
   19.7210    5.0752  -11.6561 C   0  0  0  0  0  0  0  0  0  0  0  0
   19.9116    4.5110  -10.5826 O   0  0  0  0  0  0  0  0  0  0  0  0
   19.3047    4.3613  -12.9306 C   0  0  0  0  0  0  0  0  0  0  0  0
   19.8458    2.9550  -13.0688 C   0  0  0  0  0  0  0  0  0  0  0  0
   19.1036    1.9121  -12.4780 C   0  0  0  0  0  0  0  0  0  0  0  0
   19.4625    0.5752  -12.6514 C   0  0  0  0  0  0  0  0  0  0  0  0
   20.5654    0.2569  -13.4311 C   0  0  0  0  0  0  0  0  0  0  0  0
   21.0229   -1.0033  -13.7055 O   0  0  0  0  0  0  0  0  0  0  0  0
   20.3219   -2.0836  -13.1026 C   0  0  0  0  0  0  0  0  0  0  0  0
   21.3127    1.2906  -14.0049 C   0  0  0  0  0  0  0  0  0  0  0  0
   21.0045    2.6517  -13.8110 C   0  0  0  0  0  0  0  0  0  0  0  0
   21.8292    3.6217  -14.3675 N   0  0  0  0  0  0  0  0  0  0  0  0
   21.9071    3.7258  -15.8131 C   0  0  0  0  0  0  0  0  0  0  0  0
   20.7273    4.3679  -16.2836 O   0  0  0  0  0  0  0  0  0  0  0  0
   23.1183    4.5449  -16.2616 C   0  0  0  0  0  0  0  0  0  0  0  0
   23.1749    5.9200  -15.5882 C   0  0  0  0  0  0  0  0  0  0  0  0
   22.5429    5.9114  -14.1925 C   0  0  0  0  0  0  0  0  0  0  0  0
   22.6420    4.5121  -13.5213 C   0  0  0  0  0  0  0  0  0  0  0  0
   24.0744    4.2181  -13.2414 N   0  0  0  0  0  0  0  0  0  0  0  0
   24.2892    2.8293  -12.8386 C   0  0  0  0  0  0  0  0  0  0  0  0
   25.7866    2.5001  -12.7579 C   0  0  0  0  0  0  0  0  0  0  0  0
   26.6283    3.6211  -12.1538 C   0  0  0  0  0  0  0  0  0  0  0  0
   25.7558    4.5827  -11.3687 C   0  0  0  0  0  0  0  0  0  0  0  0
   24.6401    5.1582  -12.2504 C   0  0  0  0  0  0  0  0  0  0  0  0
  1  2  1  0
  2  3  1  0
  3  4  2  0
  3  5  1  0
  5  6  1  0
  6  7  2  0
  7  8  1  0
  8  9  2  0
  9 10  1  0
 10 11  1  0
  9 12  1  0
 12 13  2  0
 13 14  1  0
 14 15  1  0
 15 16  1  0
 15 17  1  0
 17 18  1  0
 18 19  1  0
 19 20  1  0
 20 21  1  0
 21 22  1  0
 22 23  1  0
 23 24  1  0
 24 25  1  0
 25 26  1  0
 13  6  1  0
 20 14  1  0
 26 21  1  0
M  END
$$$$
