
     RDKit          3D

 20 21  0  0  0  0  0  0  0  0999 V2000
   -9.6130   14.0986   16.3731 C   0  0  0  0  0  0  0  0  0  0  0  0
   -9.4683   15.4218   16.9773 N   0  0  0  0  0  0  0  0  0  0  0  0
   -9.8561   16.4853   16.0370 C   0  0  0  0  0  0  0  0  0  0  0  0
  -11.3611   16.4928   15.7929 C   0  0  0  0  0  0  0  0  0  0  0  0
  -11.8123   16.2183   14.6783 O   0  0  0  0  0  0  0  0  0  0  0  0
  -12.2343   16.8095   16.9975 C   0  0  0  0  0  0  0  0  0  0  0  0
  -13.5694   17.4271   16.6500 C   0  0  0  0  0  0  0  0  0  0  0  0
  -13.5747   18.8079   16.3606 C   0  0  0  0  0  0  0  0  0  0  0  0
  -14.7562   19.4785   16.0469 C   0  0  0  0  0  0  0  0  0  0  0  0
  -15.9629   18.7910   16.0088 C   0  0  0  0  0  0  0  0  0  0  0  0
  -17.0518   19.5562   15.6930 O   0  0  0  0  0  0  0  0  0  0  0  0
  -18.2973   18.8784   15.5854 C   0  0  0  0  0  0  0  0  0  0  0  0
  -15.9677   17.4244   16.2868 C   0  0  0  0  0  0  0  0  0  0  0  0
  -14.7853   16.7175   16.6015 C   0  0  0  0  0  0  0  0  0  0  0  0
  -14.9522   15.3495   16.8494 N   0  0  0  0  0  0  0  0  0  0  0  0
  -14.2487   14.4315   15.9493 C   0  0  0  0  0  0  0  0  0  0  0  0
  -14.8998   13.0507   16.0476 C   0  0  0  0  0  0  0  0  0  0  0  0
  -14.9375   12.5627   17.4961 C   0  0  0  0  0  0  0  0  0  0  0  0
  -15.6165   13.5904   18.4017 C   0  0  0  0  0  0  0  0  0  0  0  0
  -14.9713   14.9707   18.2644 C   0  0  0  0  0  0  0  0  0  0  0  0
  1  2  1  0
  2  3  1  0
  3  4  1  0
  4  5  2  0
  4  6  1  0
  6  7  1  0
  7  8  2  0
  8  9  1  0
  9 10  2  0
 10 11  1  0
 11 12  1  0
 10 13  1  0
 13 14  2  0
 14 15  1  0
 15 16  1  0
 16 17  1  0
 17 18  1  0
 18 19  1  0
 19 20  1  0
 14  7  1  0
 20 15  1  0
M  END
$$$$
