
     RDKit          3D

 16 17  0  0  0  0  0  0  0  0999 V2000
  -55.4432   59.0372   22.3020 N   0  0  0  0  0  0  0  0  0  0  0  0
  -54.8816   57.9464   23.0872 C   0  0  0  0  0  0  0  0  0  0  0  0
  -55.9780   57.2587   23.8976 C   0  0  0  0  0  0  0  0  0  0  0  0
  -55.3955   56.1766   24.7977 C   0  0  0  0  0  0  0  0  0  0  0  0
  -56.4630   55.2881   25.4059 C   0  0  0  0  0  0  0  0  0  0  0  0
  -56.5117   54.0884   25.1188 O   0  0  0  0  0  0  0  0  0  0  0  0
  -57.4387   55.9124   26.3866 C   0  0  0  0  0  0  0  0  0  0  0  0
  -58.7445   56.2558   25.7487 C   0  0  0  0  0  0  0  0  0  0  0  0
  -59.6114   55.3698   25.1366 C   0  0  0  0  0  0  0  0  0  0  0  0
  -60.6963   56.0662   24.6820 N   0  0  0  0  0  0  0  0  0  0  0  0
  -60.5688   57.3989   24.9932 C   0  0  0  0  0  0  0  0  0  0  0  0
  -61.4310   58.4703   24.7305 C   0  0  0  0  0  0  0  0  0  0  0  0
  -61.0431   59.7383   25.1713 C   0  0  0  0  0  0  0  0  0  0  0  0
  -59.8414   59.9238   25.8489 C   0  0  0  0  0  0  0  0  0  0  0  0
  -58.9917   58.8410   26.1046 C   0  0  0  0  0  0  0  0  0  0  0  0
  -59.3563   57.5499   25.6680 C   0  0  0  0  0  0  0  0  0  0  0  0
  1  2  1  0
  2  3  1  0
  3  4  1  0
  4  5  1  0
  5  6  2  0
  5  7  1  0
  7  8  1  0
  8  9  2  0
  9 10  1  0
 10 11  1  0
 11 12  2  0
 12 13  1  0
 13 14  2  0
 14 15  1  0
 15 16  2  0
 16  8  1  0
 16 11  1  0
M  END
$$$$
