
     RDKit          3D

 19 20  0  0  0  0  0  0  0  0999 V2000
  -17.7215    2.3187   13.4069 C   0  0  0  0  0  0  0  0  0  0  0  0
  -17.9782    1.4061   12.3263 N   0  0  0  0  0  0  0  0  0  0  0  0
  -16.9362    0.8161   11.6427 C   0  0  0  0  0  0  0  0  0  0  0  0
  -15.7576    1.1280   11.7895 O   0  0  0  0  0  0  0  0  0  0  0  0
  -17.3873   -0.2546   10.6701 C   0  0  0  0  0  0  0  0  0  0  0  0
  -17.5444   -1.6115   11.3202 C   0  0  0  0  0  0  0  0  0  0  0  0
  -16.4987   -2.5411   11.1737 C   0  0  0  0  0  0  0  0  0  0  0  0
  -16.5837   -3.8174   11.7317 C   0  0  0  0  0  0  0  0  0  0  0  0
  -17.7205   -4.1870   12.4403 C   0  0  0  0  0  0  0  0  0  0  0  0
  -17.9476   -5.4067   13.0184 O   0  0  0  0  0  0  0  0  0  0  0  0
  -16.9101   -6.3729   12.9060 C   0  0  0  0  0  0  0  0  0  0  0  0
  -18.7579   -3.2614   12.6020 C   0  0  0  0  0  0  0  0  0  0  0  0
  -18.6851   -1.9576   12.0784 C   0  0  0  0  0  0  0  0  0  0  0  0
  -19.7322   -1.0169   12.2478 N   0  0  0  0  0  0  0  0  0  0  0  0
  -20.7713   -1.1998   11.2201 C   0  0  0  0  0  0  0  0  0  0  0  0
  -21.6050    0.0817   11.1347 C   0  0  0  0  0  0  0  0  0  0  0  0
  -21.8203    0.7530   12.4944 C   0  0  0  0  0  0  0  0  0  0  0  0
  -21.6475   -0.2325   13.6425 C   0  0  0  0  0  0  0  0  0  0  0  0
  -20.2729   -0.9158   13.6260 C   0  0  0  0  0  0  0  0  0  0  0  0
  1  2  1  0
  2  3  1  0
  3  4  2  0
  3  5  1  0
  5  6  1  0
  6  7  2  0
  7  8  1  0
  8  9  2  0
  9 10  1  0
 10 11  1  0
  9 12  1  0
 12 13  2  0
 13 14  1  0
 14 15  1  0
 15 16  1  0
 16 17  1  0
 17 18  1  0
 18 19  1  0
 13  6  1  0
 19 14  1  0
M  END
$$$$
