
     RDKit          3D

 19 20  0  0  0  0  0  0  0  0999 V2000
   -0.7707   12.9752   -4.4734 N   0  0  0  0  0  0  0  0  0  0  0  0
   -1.4100   14.2900   -4.4851 C   0  0  0  0  0  0  0  0  0  0  0  0
   -2.0599   14.6370   -3.1529 C   0  0  0  0  0  0  0  0  0  0  0  0
   -3.3891   13.9357   -2.9601 C   0  0  0  0  0  0  0  0  0  0  0  0
   -3.5471   13.1188   -2.0496 O   0  0  0  0  0  0  0  0  0  0  0  0
   -4.5024   14.2649   -3.9403 C   0  0  0  0  0  0  0  0  0  0  0  0
   -5.8799   14.0704   -3.3209 C   0  0  0  0  0  0  0  0  0  0  0  0
   -6.1496   15.0668   -2.2070 C   0  0  0  0  0  0  0  0  0  0  0  0
   -5.4160   16.0401   -2.0189 O   0  0  0  0  0  0  0  0  0  0  0  0
   -7.3835   14.8220   -1.3585 C   0  0  0  0  0  0  0  0  0  0  0  0
   -8.6337   15.1056   -2.1202 C   0  0  0  0  0  0  0  0  0  0  0  0
   -9.1733   16.3527   -2.3618 C   0  0  0  0  0  0  0  0  0  0  0  0
  -10.3129   16.1935   -3.1013 N   0  0  0  0  0  0  0  0  0  0  0  0
  -10.5264   14.8650   -3.3646 C   0  0  0  0  0  0  0  0  0  0  0  0
  -11.5516   14.2465   -4.0898 C   0  0  0  0  0  0  0  0  0  0  0  0
  -11.5171   12.8508   -4.2047 C   0  0  0  0  0  0  0  0  0  0  0  0
  -10.4970   12.1105   -3.6158 C   0  0  0  0  0  0  0  0  0  0  0  0
   -9.4824   12.7451   -2.8888 C   0  0  0  0  0  0  0  0  0  0  0  0
   -9.4928   14.1525   -2.7585 C   0  0  0  0  0  0  0  0  0  0  0  0
  1  2  1  0
  2  3  1  0
  3  4  1  0
  4  5  2  0
  4  6  1  0
  6  7  1  0
  7  8  1  0
  8  9  2  0
  8 10  1  0
 10 11  1  0
 11 12  2  0
 12 13  1  0
 13 14  1  0
 14 15  2  0
 15 16  1  0
 16 17  2  0
 17 18  1  0
 18 19  2  0
 19 11  1  0
 19 14  1  0
M  END
$$$$
