
     RDKit          3D

 22 24  0  0  0  0  0  0  0  0999 V2000
  -21.3474   -2.0140   26.2963 N   0  0  0  0  0  0  0  0  0  0  0  0
  -20.0794   -2.5821   25.8497 C   0  0  0  0  0  0  0  0  0  0  0  0
  -18.9325   -2.3236   26.8284 C   0  0  0  0  0  0  0  0  0  0  0  0
  -19.0354   -2.9550   28.2284 C   0  0  0  0  0  0  0  0  0  0  0  0
  -20.1883   -2.4328   28.9011 O   0  0  0  0  0  0  0  0  0  0  0  0
  -19.0237   -4.4905   28.3429 C   0  0  0  0  0  0  0  0  0  0  0  0
  -20.3647   -5.2059   28.0848 C   0  0  0  0  0  0  0  0  0  0  0  0
  -20.0118   -6.5285   27.4041 C   0  0  0  0  0  0  0  0  0  0  0  0
  -18.5060   -6.6848   27.5838 C   0  0  0  0  0  0  0  0  0  0  0  0
  -17.9954   -5.2440   27.4659 C   0  0  0  0  0  0  0  0  0  0  0  0
  -16.6098   -4.9352   27.8278 N   0  0  0  0  0  0  0  0  0  0  0  0
  -16.0575   -5.5915   29.0178 C   0  0  0  0  0  0  0  0  0  0  0  0
  -15.4298   -6.9683   28.7805 C   0  0  0  0  0  0  0  0  0  0  0  0
  -14.4797   -6.9663   27.5929 C   0  0  0  0  0  0  0  0  0  0  0  0
  -15.1483   -6.3200   26.3840 C   0  0  0  0  0  0  0  0  0  0  0  0
  -15.6686   -4.8960   26.6947 C   0  0  0  0  0  0  0  0  0  0  0  0
  -14.5850   -3.9320   26.9983 N   0  0  0  0  0  0  0  0  0  0  0  0
  -15.0744   -2.5752   27.2693 C   0  0  0  0  0  0  0  0  0  0  0  0
  -13.9576   -1.7057   27.8639 C   0  0  0  0  0  0  0  0  0  0  0  0
  -12.5888   -1.9640   27.2365 C   0  0  0  0  0  0  0  0  0  0  0  0
  -12.7427   -2.5989   25.8656 C   0  0  0  0  0  0  0  0  0  0  0  0
  -13.5469   -3.9055   25.9471 C   0  0  0  0  0  0  0  0  0  0  0  0
  1  2  1  0
  2  3  1  0
  3  4  1  0
  4  5  1  0
  4  6  1  0
  6  7  1  0
  7  8  1  0
  8  9  1  0
  9 10  1  0
 10 11  1  0
 11 12  1  0
 12 13  1  0
 13 14  1  0
 14 15  1  0
 15 16  1  0
 16 17  1  0
 17 18  1  0
 18 19  1  0
 19 20  1  0
 20 21  1  0
 21 22  1  0
 10  6  1  0
 16 11  1  0
 22 17  1  0
M  END
$$$$
