
     RDKit          3D

 31 34  0  0  0  0  0  0  0  0999 V2000
   -8.8849    5.0744   14.8990 C   0  0  0  0  0  0  0  0  0  0  0  0
   -7.6040    4.5804   14.5302 O   0  0  0  0  0  0  0  0  0  0  0  0
   -6.7821    5.4353   13.8481 C   0  0  0  0  0  0  0  0  0  0  0  0
   -7.0641    6.7574   13.5277 C   0  0  0  0  0  0  0  0  0  0  0  0
   -6.1277    7.5156   12.8228 C   0  0  0  0  0  0  0  0  0  0  0  0
   -4.8923    6.9669   12.4300 C   0  0  0  0  0  0  0  0  0  0  0  0
   -3.9437    7.8304   11.6269 C   0  0  0  0  0  0  0  0  0  0  0  0
   -3.1867    8.8371   12.4722 C   0  0  0  0  0  0  0  0  0  0  0  0
   -3.7175   10.0966   12.5030 N   0  0  0  0  0  0  0  0  0  0  0  0
   -2.1596    8.5880   13.0964 O   0  0  0  0  0  0  0  0  0  0  0  0
   -4.5886    5.6299   12.7642 C   0  0  0  0  0  0  0  0  0  0  0  0
   -3.3416    5.0857   12.4093 N   0  0  0  0  0  0  0  0  0  0  0  0
   -3.3669    3.7851   11.7130 C   0  0  0  0  0  0  0  0  0  0  0  0
   -3.2422    2.6043   12.6580 C   0  0  0  0  0  0  0  0  0  0  0  0
   -3.8704    1.5577   12.4795 O   0  0  0  0  0  0  0  0  0  0  0  0
   -2.2131    2.7097   13.7544 C   0  0  0  0  0  0  0  0  0  0  0  0
   -2.2406    4.0799   14.4156 C   0  0  0  0  0  0  0  0  0  0  0  0
   -2.2910    5.2707   13.4449 C   0  0  0  0  0  0  0  0  0  0  0  0
   -0.9234    5.6380   12.7950 C   0  0  0  0  0  0  0  0  0  0  0  0
   -0.2152    4.5498   12.0969 N   0  0  0  0  0  0  0  0  0  0  0  0
    0.8573    5.0664   11.2343 C   0  0  0  0  0  0  0  0  0  0  0  0
    1.9924    5.6286   12.0269 C   0  0  0  0  0  0  0  0  0  0  0  0
    2.8347    4.9530   12.7851 N   0  0  0  0  0  0  0  0  0  0  0  0
    3.6702    5.8941   13.3358 C   0  0  0  0  0  0  0  0  0  0  0  0
    4.7491    5.7312   14.2165 C   0  0  0  0  0  0  0  0  0  0  0  0
    5.4464    6.8692   14.6426 C   0  0  0  0  0  0  0  0  0  0  0  0
    5.0751    8.1425   14.2021 C   0  0  0  0  0  0  0  0  0  0  0  0
    3.9997    8.3246   13.3246 C   0  0  0  0  0  0  0  0  0  0  0  0
    3.3254    7.1730   12.9136 C   0  0  0  0  0  0  0  0  0  0  0  0
    2.2514    6.9768   12.0844 N   0  0  0  0  0  0  0  0  0  0  0  0
   -5.5536    4.8852   13.4659 C   0  0  0  0  0  0  0  0  0  0  0  0
  1  2  1  0
  2  3  1  0
  3  4  2  0
  4  5  1  0
  5  6  2  0
  6  7  1  0
  7  8  1  0
  8  9  1  0
  8 10  2  0
  6 11  1  0
 11 12  1  0
 12 13  1  0
 13 14  1  0
 14 15  2  0
 14 16  1  0
 16 17  1  0
 17 18  1  0
 18 19  1  0
 19 20  1  0
 20 21  1  0
 21 22  1  0
 22 23  2  0
 23 24  1  0
 24 25  2  0
 25 26  1  0
 26 27  2  0
 27 28  1  0
 28 29  2  0
 29 30  1  0
 11 31  2  0
 31  3  1  0
 18 12  1  0
 30 22  1  0
 29 24  1  0
M  END
$$$$
