
     RDKit          3D

 19 20  0  0  0  0  0  0  0  0999 V2000
    6.9386  -10.8278   12.4920 N   0  0  0  0  0  0  0  0  0  0  0  0
    7.4456  -11.3455   11.2265 C   0  0  0  0  0  0  0  0  0  0  0  0
    7.4756  -10.2666   10.1543 C   0  0  0  0  0  0  0  0  0  0  0  0
    6.0836   -9.8861    9.6941 C   0  0  0  0  0  0  0  0  0  0  0  0
    5.3268  -10.7063    9.1704 O   0  0  0  0  0  0  0  0  0  0  0  0
    5.6549   -8.4591    9.8839 C   0  0  0  0  0  0  0  0  0  0  0  0
    5.2192   -8.1520   11.2897 C   0  0  0  0  0  0  0  0  0  0  0  0
    6.0127   -7.6759   12.1046 O   0  0  0  0  0  0  0  0  0  0  0  0
    3.7890   -8.4679   11.6664 C   0  0  0  0  0  0  0  0  0  0  0  0
    3.6969   -9.7737   12.4414 C   0  0  0  0  0  0  0  0  0  0  0  0
    2.2767  -10.1602   12.7062 C   0  0  0  0  0  0  0  0  0  0  0  0
    1.5300   -9.8403   13.8229 C   0  0  0  0  0  0  0  0  0  0  0  0
    0.2797  -10.3766   13.6712 N   0  0  0  0  0  0  0  0  0  0  0  0
    0.1880  -11.0416   12.4710 C   0  0  0  0  0  0  0  0  0  0  0  0
   -0.8889  -11.7306   11.9001 C   0  0  0  0  0  0  0  0  0  0  0  0
   -0.6897  -12.3209   10.6485 C   0  0  0  0  0  0  0  0  0  0  0  0
    0.5375  -12.2248    9.9969 C   0  0  0  0  0  0  0  0  0  0  0  0
    1.6037  -11.5320   10.5818 C   0  0  0  0  0  0  0  0  0  0  0  0
    1.4285  -10.9270   11.8436 C   0  0  0  0  0  0  0  0  0  0  0  0
  1  2  1  0
  2  3  1  0
  3  4  1  0
  4  5  2  0
  4  6  1  0
  6  7  1  0
  7  8  2  0
  7  9  1  0
  9 10  1  0
 10 11  1  0
 11 12  2  0
 12 13  1  0
 13 14  1  0
 14 15  2  0
 15 16  1  0
 16 17  2  0
 17 18  1  0
 18 19  2  0
 19 11  1  0
 19 14  1  0
M  END
$$$$
