
     RDKit          3D

 19 20  0  0  0  0  0  0  0  0999 V2000
   -7.2163    0.8019    2.9388 N   0  0  0  0  0  0  0  0  0  0  0  0
   -6.7092    0.2842    1.6733 C   0  0  0  0  0  0  0  0  0  0  0  0
   -6.6792    1.3632    0.6011 C   0  0  0  0  0  0  0  0  0  0  0  0
   -8.0713    1.7436    0.1409 C   0  0  0  0  0  0  0  0  0  0  0  0
   -8.8280    0.9234   -0.3828 O   0  0  0  0  0  0  0  0  0  0  0  0
   -8.4999    3.1706    0.3308 C   0  0  0  0  0  0  0  0  0  0  0  0
   -8.9356    3.4777    1.7365 C   0  0  0  0  0  0  0  0  0  0  0  0
   -8.1422    3.9538    2.5515 O   0  0  0  0  0  0  0  0  0  0  0  0
  -10.3659    3.1618    2.1132 C   0  0  0  0  0  0  0  0  0  0  0  0
  -10.4579    1.8560    2.8883 C   0  0  0  0  0  0  0  0  0  0  0  0
  -11.8782    1.4695    3.1530 C   0  0  0  0  0  0  0  0  0  0  0  0
  -12.6248    1.7895    4.2697 C   0  0  0  0  0  0  0  0  0  0  0  0
  -13.8751    1.2532    4.1181 N   0  0  0  0  0  0  0  0  0  0  0  0
  -13.9668    0.5881    2.9179 C   0  0  0  0  0  0  0  0  0  0  0  0
  -15.0437   -0.1008    2.3470 C   0  0  0  0  0  0  0  0  0  0  0  0
  -14.8446   -0.6912    1.0953 C   0  0  0  0  0  0  0  0  0  0  0  0
  -13.6174   -0.5951    0.4437 C   0  0  0  0  0  0  0  0  0  0  0  0
  -12.5512    0.0977    1.0287 C   0  0  0  0  0  0  0  0  0  0  0  0
  -12.7263    0.7027    2.2905 C   0  0  0  0  0  0  0  0  0  0  0  0
  1  2  1  0
  2  3  1  0
  3  4  1  0
  4  5  2  0
  4  6  1  0
  6  7  1  0
  7  8  2  0
  7  9  1  0
  9 10  1  0
 10 11  1  0
 11 12  2  0
 12 13  1  0
 13 14  1  0
 14 15  2  0
 15 16  1  0
 16 17  2  0
 17 18  1  0
 18 19  2  0
 19 11  1  0
 19 14  1  0
M  END
$$$$
