
     RDKit          3D

 19 20  0  0  0  0  0  0  0  0999 V2000
   -7.2058   12.7774   19.1747 N   0  0  0  0  0  0  0  0  0  0  0  0
   -7.8451   14.0922   19.1630 C   0  0  0  0  0  0  0  0  0  0  0  0
   -8.4951   14.4392   20.4952 C   0  0  0  0  0  0  0  0  0  0  0  0
   -9.8243   13.7379   20.6880 C   0  0  0  0  0  0  0  0  0  0  0  0
   -9.9823   12.9209   21.5985 O   0  0  0  0  0  0  0  0  0  0  0  0
  -10.9376   14.0671   19.7078 C   0  0  0  0  0  0  0  0  0  0  0  0
  -12.3150   13.8726   20.3272 C   0  0  0  0  0  0  0  0  0  0  0  0
  -12.5847   14.8690   21.4411 C   0  0  0  0  0  0  0  0  0  0  0  0
  -11.8512   15.8423   21.6292 O   0  0  0  0  0  0  0  0  0  0  0  0
  -13.8186   14.6242   22.2896 C   0  0  0  0  0  0  0  0  0  0  0  0
  -15.0689   14.9078   21.5279 C   0  0  0  0  0  0  0  0  0  0  0  0
  -15.6084   16.1549   21.2863 C   0  0  0  0  0  0  0  0  0  0  0  0
  -16.7481   15.9957   20.5468 N   0  0  0  0  0  0  0  0  0  0  0  0
  -16.9615   14.6672   20.2835 C   0  0  0  0  0  0  0  0  0  0  0  0
  -17.9868   14.0486   19.5583 C   0  0  0  0  0  0  0  0  0  0  0  0
  -17.9523   12.6530   19.4434 C   0  0  0  0  0  0  0  0  0  0  0  0
  -16.9322   11.9127   20.0323 C   0  0  0  0  0  0  0  0  0  0  0  0
  -15.9176   12.5473   20.7593 C   0  0  0  0  0  0  0  0  0  0  0  0
  -15.9280   13.9547   20.8896 C   0  0  0  0  0  0  0  0  0  0  0  0
  1  2  1  0
  2  3  1  0
  3  4  1  0
  4  5  2  0
  4  6  1  0
  6  7  1  0
  7  8  1  0
  8  9  2  0
  8 10  1  0
 10 11  1  0
 11 12  2  0
 12 13  1  0
 13 14  1  0
 14 15  2  0
 15 16  1  0
 16 17  2  0
 17 18  1  0
 18 19  2  0
 19 11  1  0
 19 14  1  0
M  END
$$$$
