
     RDKit          3D

 32 35  0  0  0  0  0  0  0  0999 V2000
   20.6637   18.3537  -80.5916 N   0  0  0  0  0  0  0  0  0  0  0  0
   21.4985   19.4889  -80.1889 C   0  0  0  0  0  0  0  0  0  0  0  0
   20.6574   20.6150  -79.6308 C   0  0  0  0  0  0  0  0  0  0  0  0
   19.9163   20.3739  -78.4538 C   0  0  0  0  0  0  0  0  0  0  0  0
   19.1433   21.3741  -77.8720 C   0  0  0  0  0  0  0  0  0  0  0  0
   19.1010   22.6248  -78.4765 C   0  0  0  0  0  0  0  0  0  0  0  0
   18.1191   23.9154  -77.7681 S   0  0  0  0  0  0  0  0  0  0  0  0
   16.6477   23.6803  -78.5602 N   0  0  0  0  0  0  0  0  0  0  0  0
   18.6526   25.1888  -78.1901 O   0  0  0  0  0  0  0  0  0  0  0  0
   17.8690   23.5992  -76.3809 O   0  0  0  0  0  0  0  0  0  0  0  0
   19.8285   22.8870  -79.6412 C   0  0  0  0  0  0  0  0  0  0  0  0
   20.6169   21.8902  -80.2361 C   0  0  0  0  0  0  0  0  0  0  0  0
   21.3615   22.1503  -81.3976 N   0  0  0  0  0  0  0  0  0  0  0  0
   20.5492   22.4562  -82.5849 C   0  0  0  0  0  0  0  0  0  0  0  0
   21.2702   23.3989  -83.5383 C   0  0  0  0  0  0  0  0  0  0  0  0
   21.6919   24.6697  -82.8101 C   0  0  0  0  0  0  0  0  0  0  0  0
   22.3924   24.3870  -81.4742 C   0  0  0  0  0  0  0  0  0  0  0  0
   22.6375   22.8791  -81.2162 C   0  0  0  0  0  0  0  0  0  0  0  0
   23.3716   22.6832  -79.9640 N   0  0  0  0  0  0  0  0  0  0  0  0
   24.8215   22.5459  -80.0719 C   0  0  0  0  0  0  0  0  0  0  0  0
   25.5757   23.8357  -80.4507 C   0  0  0  0  0  0  0  0  0  0  0  0
   27.0320   23.7616  -80.3622 N   0  0  0  0  0  0  0  0  0  0  0  0
   27.5227   23.7457  -78.9879 C   0  0  0  0  0  0  0  0  0  0  0  0
   29.0069   23.9232  -79.0409 C   0  0  0  0  0  0  0  0  0  0  0  0
   29.6788   25.1145  -79.2500 C   0  0  0  0  0  0  0  0  0  0  0  0
   31.0215   24.8636  -79.2435 N   0  0  0  0  0  0  0  0  0  0  0  0
   31.2546   23.5263  -79.0237 C   0  0  0  0  0  0  0  0  0  0  0  0
   32.4649   22.8281  -78.9362 C   0  0  0  0  0  0  0  0  0  0  0  0
   32.4027   21.4506  -78.7066 C   0  0  0  0  0  0  0  0  0  0  0  0
   31.1786   20.8010  -78.5714 C   0  0  0  0  0  0  0  0  0  0  0  0
   29.9775   21.5152  -78.6617 C   0  0  0  0  0  0  0  0  0  0  0  0
   30.0101   22.9081  -78.8915 C   0  0  0  0  0  0  0  0  0  0  0  0
  1  2  1  0
  2  3  1  0
  3  4  2  0
  4  5  1  0
  5  6  2  0
  6  7  1  0
  7  8  1  0
  7  9  2  0
  7 10  2  0
  6 11  1  0
 11 12  2  0
 12 13  1  0
 13 14  1  0
 14 15  1  0
 15 16  1  0
 16 17  1  0
 17 18  1  0
 18 19  1  0
 19 20  1  0
 20 21  1  0
 21 22  1  0
 22 23  1  0
 23 24  1  0
 24 25  2  0
 25 26  1  0
 26 27  1  0
 27 28  2  0
 28 29  1  0
 29 30  2  0
 30 31  1  0
 31 32  2  0
 12  3  1  0
 18 13  1  0
 32 24  1  0
 32 27  1  0
M  END
$$$$
