
     RDKit          3D

 28 31  0  0  0  0  0  0  0  0999 V2000
   37.8528   46.6983  -30.3567 C   0  0  0  0  0  0  0  0  0  0  0  0
   37.2759   45.4395  -30.6807 O   0  0  0  0  0  0  0  0  0  0  0  0
   37.1164   44.5495  -29.6535 C   0  0  0  0  0  0  0  0  0  0  0  0
   37.4714   44.7617  -28.3244 C   0  0  0  0  0  0  0  0  0  0  0  0
   37.2517   43.7607  -27.3751 C   0  0  0  0  0  0  0  0  0  0  0  0
   36.7061   42.5289  -27.7494 C   0  0  0  0  0  0  0  0  0  0  0  0
   36.4399   41.5614  -26.7548 N   0  0  0  0  0  0  0  0  0  0  0  0
   36.2672   42.3247  -29.0803 C   0  0  0  0  0  0  0  0  0  0  0  0
   35.6104   41.1328  -29.4322 N   0  0  0  0  0  0  0  0  0  0  0  0
   35.9634   40.5460  -30.7364 C   0  0  0  0  0  0  0  0  0  0  0  0
   35.7093   39.0442  -30.6909 C   0  0  0  0  0  0  0  0  0  0  0  0
   36.2616   38.2580  -31.4613 O   0  0  0  0  0  0  0  0  0  0  0  0
   34.7210   38.5662  -29.6503 C   0  0  0  0  0  0  0  0  0  0  0  0
   33.6417   39.6282  -29.4994 C   0  0  0  0  0  0  0  0  0  0  0  0
   34.2039   40.9722  -28.9674 C   0  0  0  0  0  0  0  0  0  0  0  0
   33.2636   42.1154  -29.4070 C   0  0  0  0  0  0  0  0  0  0  0  0
   33.1389   43.2262  -28.3578 C   0  0  0  0  0  0  0  0  0  0  0  0
   32.1914   44.2471  -28.7834 N   0  0  0  0  0  0  0  0  0  0  0  0
   30.8326   43.9480  -28.7487 C   0  0  0  0  0  0  0  0  0  0  0  0
   30.3395   43.0125  -27.8919 N   0  0  0  0  0  0  0  0  0  0  0  0
   29.0093   42.7736  -27.8810 C   0  0  0  0  0  0  0  0  0  0  0  0
   28.0494   43.3385  -28.6410 N   0  0  0  0  0  0  0  0  0  0  0  0
   28.5846   44.2417  -29.4734 C   0  0  0  0  0  0  0  0  0  0  0  0
   27.9228   45.0082  -30.3876 N   0  0  0  0  0  0  0  0  0  0  0  0
   28.8521   45.7823  -31.0281 C   0  0  0  0  0  0  0  0  0  0  0  0
   30.0701   45.5601  -30.5802 N   0  0  0  0  0  0  0  0  0  0  0  0
   29.9151   44.6009  -29.5959 C   0  0  0  0  0  0  0  0  0  0  0  0
   36.5183   43.3383  -30.0201 C   0  0  0  0  0  0  0  0  0  0  0  0
  1  2  1  0
  2  3  1  0
  3  4  2  0
  4  5  1  0
  5  6  2  0
  6  7  1  0
  6  8  1  0
  8  9  1  0
  9 10  1  0
 10 11  1  0
 11 12  2  0
 11 13  1  0
 13 14  1  0
 14 15  1  0
 15 16  1  0
 16 17  1  0
 17 18  1  0
 18 19  1  0
 19 20  2  0
 20 21  1  0
 21 22  2  0
 22 23  1  0
 23 24  1  0
 24 25  1  0
 25 26  2  0
 26 27  1  0
  8 28  2  0
 28  3  1  0
 15  9  1  0
 27 19  1  0
 27 23  2  0
M  END
$$$$
