
     RDKit          3D

 31 34  0  0  0  0  0  0  0  0999 V2000
  -21.6787   14.3855   18.5851 N   0  0  0  0  0  0  0  0  0  0  0  0
  -20.6062   13.6089   19.1939 C   0  0  0  0  0  0  0  0  0  0  0  0
  -20.8738   12.1189   19.0578 C   0  0  0  0  0  0  0  0  0  0  0  0
  -22.1375   11.7474   19.8173 C   0  0  0  0  0  0  0  0  0  0  0  0
  -22.0193   11.3097   20.9776 O   0  0  0  0  0  0  0  0  0  0  0  0
  -23.8506   11.8849   19.1739 S   0  0  0  0  0  0  0  0  0  0  0  0
  -23.7049   11.9662   17.7288 O   0  0  0  0  0  0  0  0  0  0  0  0
  -24.5170   12.9387   19.9262 O   0  0  0  0  0  0  0  0  0  0  0  0
  -24.5873   10.3346   19.6770 C   0  0  0  0  0  0  0  0  0  0  0  0
  -24.9865   10.2753   21.0296 C   0  0  0  0  0  0  0  0  0  0  0  0
  -25.4464    9.0775   21.5354 C   0  0  0  0  0  0  0  0  0  0  0  0
  -25.5403    7.9593   20.7907 N   0  0  0  0  0  0  0  0  0  0  0  0
  -25.1630    8.0543   19.4909 C   0  0  0  0  0  0  0  0  0  0  0  0
  -24.7068    9.2132   18.8414 C   0  0  0  0  0  0  0  0  0  0  0  0
  -24.4529    9.2300   17.4617 N   0  0  0  0  0  0  0  0  0  0  0  0
  -23.7886    8.0566   16.8670 C   0  0  0  0  0  0  0  0  0  0  0  0
  -23.2101    8.4421   15.5045 C   0  0  0  0  0  0  0  0  0  0  0  0
  -24.2840    9.0112   14.5756 C   0  0  0  0  0  0  0  0  0  0  0  0
  -25.0278   10.1701   15.2400 C   0  0  0  0  0  0  0  0  0  0  0  0
  -25.5709    9.8178   16.6422 C   0  0  0  0  0  0  0  0  0  0  0  0
  -26.8258    8.8898   16.5490 C   0  0  0  0  0  0  0  0  0  0  0  0
  -28.0570    9.6233   16.2448 N   0  0  0  0  0  0  0  0  0  0  0  0
  -28.5844   10.4853   17.1427 C   0  0  0  0  0  0  0  0  0  0  0  0
  -29.1461   11.6331   16.8594 N   0  0  0  0  0  0  0  0  0  0  0  0
  -29.5028   12.1810   18.0692 C   0  0  0  0  0  0  0  0  0  0  0  0
  -30.1187   13.4125   18.3539 C   0  0  0  0  0  0  0  0  0  0  0  0
  -30.3669   13.7435   19.6938 C   0  0  0  0  0  0  0  0  0  0  0  0
  -30.0137   12.8691   20.7261 C   0  0  0  0  0  0  0  0  0  0  0  0
  -29.3981   11.6349   20.4614 C   0  0  0  0  0  0  0  0  0  0  0  0
  -29.1629   11.3300   19.1178 C   0  0  0  0  0  0  0  0  0  0  0  0
  -28.5997   10.2434   18.4944 N   0  0  0  0  0  0  0  0  0  0  0  0
  1  2  1  0
  2  3  1  0
  3  4  1  0
  4  5  2  0
  4  6  1  0
  6  7  2  0
  6  8  2  0
  6  9  1  0
  9 10  2  0
 10 11  1  0
 11 12  2  0
 12 13  1  0
 13 14  2  0
 14 15  1  0
 15 16  1  0
 16 17  1  0
 17 18  1  0
 18 19  1  0
 19 20  1  0
 20 21  1  0
 21 22  1  0
 22 23  1  0
 23 24  2  0
 24 25  1  0
 25 26  2  0
 26 27  1  0
 27 28  2  0
 28 29  1  0
 29 30  2  0
 30 31  1  0
 14  9  1  0
 20 15  1  0
 31 23  1  0
 30 25  1  0
M  END
$$$$
