
     RDKit          3D

 16 17  0  0  0  0  0  0  0  0999 V2000
    6.9595  -14.3708  -12.5378 N   0  0  0  0  0  0  0  0  0  0  0  0
    7.5210  -15.4616  -11.7527 C   0  0  0  0  0  0  0  0  0  0  0  0
    6.4247  -16.1492  -10.9422 C   0  0  0  0  0  0  0  0  0  0  0  0
    7.0072  -17.2314  -10.0421 C   0  0  0  0  0  0  0  0  0  0  0  0
    5.9397  -18.1199   -9.4339 C   0  0  0  0  0  0  0  0  0  0  0  0
    5.8910  -19.3196   -9.7210 O   0  0  0  0  0  0  0  0  0  0  0  0
    4.9639  -17.4956   -8.4532 C   0  0  0  0  0  0  0  0  0  0  0  0
    3.6582  -17.1522   -9.0912 C   0  0  0  0  0  0  0  0  0  0  0  0
    2.7913  -18.0381   -9.7033 C   0  0  0  0  0  0  0  0  0  0  0  0
    1.7064  -17.3418  -10.1579 N   0  0  0  0  0  0  0  0  0  0  0  0
    1.8339  -16.0091   -9.8466 C   0  0  0  0  0  0  0  0  0  0  0  0
    0.9716  -14.9376  -10.1094 C   0  0  0  0  0  0  0  0  0  0  0  0
    1.3595  -13.6697   -9.6686 C   0  0  0  0  0  0  0  0  0  0  0  0
    2.5613  -13.4841   -8.9909 C   0  0  0  0  0  0  0  0  0  0  0  0
    3.4110  -14.5670   -8.7353 C   0  0  0  0  0  0  0  0  0  0  0  0
    3.0464  -15.8581   -9.1719 C   0  0  0  0  0  0  0  0  0  0  0  0
  1  2  1  0
  2  3  1  0
  3  4  1  0
  4  5  1  0
  5  6  2  0
  5  7  1  0
  7  8  1  0
  8  9  2  0
  9 10  1  0
 10 11  1  0
 11 12  2  0
 12 13  1  0
 13 14  2  0
 14 15  1  0
 15 16  2  0
 16  8  1  0
 16 11  1  0
M  END
$$$$
