
     RDKit          3D

 25 28  0  0  0  0  0  0  0  0999 V2000
  -64.1021   44.5391   32.7991 N   0  0  0  0  0  0  0  0  0  0  0  0
  -63.8001   43.2146   33.1913 C   0  0  0  0  0  0  0  0  0  0  0  0
  -64.2409   42.1436   32.4182 C   0  0  0  0  0  0  0  0  0  0  0  0
  -63.8269   40.8683   32.7635 C   0  0  0  0  0  0  0  0  0  0  0  0
  -63.0032   40.5961   33.7963 N   0  0  0  0  0  0  0  0  0  0  0  0
  -62.5539   41.6622   34.5047 C   0  0  0  0  0  0  0  0  0  0  0  0
  -62.8968   42.9914   34.2527 C   0  0  0  0  0  0  0  0  0  0  0  0
  -62.4569   44.0913   35.0184 N   0  0  0  0  0  0  0  0  0  0  0  0
  -63.2461   44.2503   36.2549 C   0  0  0  0  0  0  0  0  0  0  0  0
  -62.3720   44.5370   37.4729 C   0  0  0  0  0  0  0  0  0  0  0  0
  -61.2148   43.5515   37.5365 C   0  0  0  0  0  0  0  0  0  0  0  0
  -60.3434   43.6105   36.2789 C   0  0  0  0  0  0  0  0  0  0  0  0
  -60.9954   44.3617   35.1045 C   0  0  0  0  0  0  0  0  0  0  0  0
  -60.2782   44.1562   33.7529 C   0  0  0  0  0  0  0  0  0  0  0  0
  -58.9555   44.9149   33.6124 C   0  0  0  0  0  0  0  0  0  0  0  0
  -57.9120   44.4362   34.5045 N   0  0  0  0  0  0  0  0  0  0  0  0
  -57.1520   43.3481   34.0610 C   0  0  0  0  0  0  0  0  0  0  0  0
  -57.6809   42.4033   33.2405 N   0  0  0  0  0  0  0  0  0  0  0  0
  -56.9137   41.3564   32.8638 C   0  0  0  0  0  0  0  0  0  0  0  0
  -55.6294   41.1013   33.1868 N   0  0  0  0  0  0  0  0  0  0  0  0
  -55.1500   42.0623   33.9875 C   0  0  0  0  0  0  0  0  0  0  0  0
  -53.8940   42.1417   34.5138 N   0  0  0  0  0  0  0  0  0  0  0  0
  -53.8320   43.2848   35.2645 C   0  0  0  0  0  0  0  0  0  0  0  0
  -54.9719   43.9441   35.2528 N   0  0  0  0  0  0  0  0  0  0  0  0
  -55.8107   43.1821   34.4601 C   0  0  0  0  0  0  0  0  0  0  0  0
  1  2  1  0
  2  3  2  0
  3  4  1  0
  4  5  2  0
  5  6  1  0
  6  7  2  0
  7  8  1  0
  8  9  1  0
  9 10  1  0
 10 11  1  0
 11 12  1  0
 12 13  1  0
 13 14  1  0
 14 15  1  0
 15 16  1  0
 16 17  1  0
 17 18  2  0
 18 19  1  0
 19 20  2  0
 20 21  1  0
 21 22  1  0
 22 23  1  0
 23 24  2  0
 24 25  1  0
  7  2  1  0
 13  8  1  0
 25 17  1  0
 25 21  2  0
M  END
$$$$
