
     RDKit          3D

 27 30  0  0  0  0  0  0  0  0999 V2000
   -8.3341    2.3060  -15.9560 N   0  0  0  0  0  0  0  0  0  0  0  0
   -7.6910    3.4711  -16.2621 C   0  0  0  0  0  0  0  0  0  0  0  0
   -8.0025    4.1400  -17.2387 O   0  0  0  0  0  0  0  0  0  0  0  0
   -6.6225    3.9045  -15.3247 C   0  0  0  0  0  0  0  0  0  0  0  0
   -6.6505    5.2662  -14.9750 C   0  0  0  0  0  0  0  0  0  0  0  0
   -5.7677    5.7681  -14.0249 C   0  0  0  0  0  0  0  0  0  0  0  0
   -4.8596    4.9111  -13.4170 C   0  0  0  0  0  0  0  0  0  0  0  0
   -4.8175    3.5586  -13.7749 C   0  0  0  0  0  0  0  0  0  0  0  0
   -5.6735    3.0194  -14.7561 C   0  0  0  0  0  0  0  0  0  0  0  0
   -5.5321    1.6844  -15.1658 N   0  0  0  0  0  0  0  0  0  0  0  0
   -5.1134    0.6773  -14.1722 C   0  0  0  0  0  0  0  0  0  0  0  0
   -5.6395   -0.6947  -14.5751 C   0  0  0  0  0  0  0  0  0  0  0  0
   -5.8922   -1.5690  -13.7452 O   0  0  0  0  0  0  0  0  0  0  0  0
   -5.8387   -0.9391  -16.0535 C   0  0  0  0  0  0  0  0  0  0  0  0
   -4.8804   -0.0571  -16.8386 C   0  0  0  0  0  0  0  0  0  0  0  0
   -5.1660    1.4414  -16.5995 C   0  0  0  0  0  0  0  0  0  0  0  0
   -3.9781    2.3055  -17.1206 C   0  0  0  0  0  0  0  0  0  0  0  0
   -2.7736    2.1015  -16.3129 N   0  0  0  0  0  0  0  0  0  0  0  0
   -1.6467    2.7893  -16.5949 C   0  0  0  0  0  0  0  0  0  0  0  0
   -0.8482    3.3451  -15.7182 N   0  0  0  0  0  0  0  0  0  0  0  0
    0.1669    3.9085  -16.4533 C   0  0  0  0  0  0  0  0  0  0  0  0
    1.2865    4.6378  -16.0279 C   0  0  0  0  0  0  0  0  0  0  0  0
    2.1887    5.1063  -16.9918 C   0  0  0  0  0  0  0  0  0  0  0  0
    1.9812    4.8524  -18.3504 C   0  0  0  0  0  0  0  0  0  0  0  0
    0.8702    4.1253  -18.7944 C   0  0  0  0  0  0  0  0  0  0  0  0
   -0.0130    3.6735  -17.8120 C   0  0  0  0  0  0  0  0  0  0  0  0
   -1.1740    2.9468  -17.8704 N   0  0  0  0  0  0  0  0  0  0  0  0
  1  2  1  0
  2  3  2  0
  2  4  1  0
  4  5  2  0
  5  6  1  0
  6  7  2  0
  7  8  1  0
  8  9  2  0
  9 10  1  0
 10 11  1  0
 11 12  1  0
 12 13  2  0
 12 14  1  0
 14 15  1  0
 15 16  1  0
 16 17  1  0
 17 18  1  0
 18 19  1  0
 19 20  2  0
 20 21  1  0
 21 22  2  0
 22 23  1  0
 23 24  2  0
 24 25  1  0
 25 26  2  0
 26 27  1  0
  9  4  1  0
 16 10  1  0
 27 19  1  0
 26 21  1  0
M  END
$$$$
