
     RDKit          3D

 15 16  0  0  0  0  0  0  0  0999 V2000
  -44.0531    6.0366   34.6330 N   0  0  0  0  0  0  0  0  0  0  0  0
  -44.7399    5.2229   35.4834 C   0  0  0  0  0  0  0  0  0  0  0  0
  -45.0824    5.6311   36.5881 O   0  0  0  0  0  0  0  0  0  0  0  0
  -45.0536    3.8341   35.0150 C   0  0  0  0  0  0  0  0  0  0  0  0
  -45.9283    3.0968   35.8362 C   0  0  0  0  0  0  0  0  0  0  0  0
  -46.3003    1.7948   35.5051 C   0  0  0  0  0  0  0  0  0  0  0  0
  -45.7994    1.2092   34.3498 C   0  0  0  0  0  0  0  0  0  0  0  0
  -44.9267    1.9244   33.5264 C   0  0  0  0  0  0  0  0  0  0  0  0
  -44.5362    3.2455   33.8328 C   0  0  0  0  0  0  0  0  0  0  0  0
  -43.6237    3.9429   32.9889 N   0  0  0  0  0  0  0  0  0  0  0  0
  -44.1052    4.0573   31.5965 C   0  0  0  0  0  0  0  0  0  0  0  0
  -43.1698    4.9897   30.8254 C   0  0  0  0  0  0  0  0  0  0  0  0
  -41.7240    4.4989   30.8943 C   0  0  0  0  0  0  0  0  0  0  0  0
  -41.2868    4.2827   32.3427 C   0  0  0  0  0  0  0  0  0  0  0  0
  -42.2636    3.3717   33.0879 C   0  0  0  0  0  0  0  0  0  0  0  0
  1  2  1  0
  2  3  2  0
  2  4  1  0
  4  5  2  0
  5  6  1  0
  6  7  2  0
  7  8  1  0
  8  9  2  0
  9 10  1  0
 10 11  1  0
 11 12  1  0
 12 13  1  0
 13 14  1  0
 14 15  1  0
  9  4  1  0
 15 10  1  0
M  END
$$$$
