
     RDKit          3D

 19 20  0  0  0  0  0  0  0  0999 V2000
   32.3250    2.5284  -21.5320 N   0  0  0  0  0  0  0  0  0  0  0  0
   32.8320    2.0108  -22.7975 C   0  0  0  0  0  0  0  0  0  0  0  0
   32.8620    3.0897  -23.8697 C   0  0  0  0  0  0  0  0  0  0  0  0
   31.4700    3.4701  -24.3299 C   0  0  0  0  0  0  0  0  0  0  0  0
   30.7132    2.6499  -24.8536 O   0  0  0  0  0  0  0  0  0  0  0  0
   31.0413    4.8972  -24.1401 C   0  0  0  0  0  0  0  0  0  0  0  0
   30.6056    5.2043  -22.7343 C   0  0  0  0  0  0  0  0  0  0  0  0
   31.3991    5.6803  -21.9193 O   0  0  0  0  0  0  0  0  0  0  0  0
   29.1754    4.8883  -22.3576 C   0  0  0  0  0  0  0  0  0  0  0  0
   29.0833    3.5825  -21.5825 C   0  0  0  0  0  0  0  0  0  0  0  0
   27.6631    3.1961  -21.3178 C   0  0  0  0  0  0  0  0  0  0  0  0
   26.9164    3.5160  -20.2011 C   0  0  0  0  0  0  0  0  0  0  0  0
   25.6661    2.9797  -20.3527 N   0  0  0  0  0  0  0  0  0  0  0  0
   25.5744    2.3146  -21.5529 C   0  0  0  0  0  0  0  0  0  0  0  0
   24.4975    1.6257  -22.1238 C   0  0  0  0  0  0  0  0  0  0  0  0
   24.6967    1.0354  -23.3755 C   0  0  0  0  0  0  0  0  0  0  0  0
   25.9239    1.1314  -24.0271 C   0  0  0  0  0  0  0  0  0  0  0  0
   26.9901    1.8242  -23.4421 C   0  0  0  0  0  0  0  0  0  0  0  0
   26.8149    2.4292  -22.1803 C   0  0  0  0  0  0  0  0  0  0  0  0
  1  2  1  0
  2  3  1  0
  3  4  1  0
  4  5  2  0
  4  6  1  0
  6  7  1  0
  7  8  2  0
  7  9  1  0
  9 10  1  0
 10 11  1  0
 11 12  2  0
 12 13  1  0
 13 14  1  0
 14 15  2  0
 15 16  1  0
 16 17  2  0
 17 18  1  0
 18 19  2  0
 19 11  1  0
 19 14  1  0
M  END
$$$$
