
     RDKit          3D

 19 20  0  0  0  0  0  0  0  0999 V2000
    8.0975   10.0364   15.5600 N   0  0  0  0  0  0  0  0  0  0  0  0
    8.6046    9.5188   14.2946 C   0  0  0  0  0  0  0  0  0  0  0  0
    8.6346   10.5977   13.2224 C   0  0  0  0  0  0  0  0  0  0  0  0
    7.2425   10.9782   12.7621 C   0  0  0  0  0  0  0  0  0  0  0  0
    6.4858   10.1580   12.2385 O   0  0  0  0  0  0  0  0  0  0  0  0
    6.8139   12.4052   12.9520 C   0  0  0  0  0  0  0  0  0  0  0  0
    6.3782   12.7123   14.3577 C   0  0  0  0  0  0  0  0  0  0  0  0
    7.1716   13.1883   15.1727 O   0  0  0  0  0  0  0  0  0  0  0  0
    4.9479   12.3964   14.7344 C   0  0  0  0  0  0  0  0  0  0  0  0
    4.8559   11.0905   15.5095 C   0  0  0  0  0  0  0  0  0  0  0  0
    3.4356   10.7041   15.7742 C   0  0  0  0  0  0  0  0  0  0  0  0
    2.6890   11.0240   16.8909 C   0  0  0  0  0  0  0  0  0  0  0  0
    1.4387   10.4877   16.7393 N   0  0  0  0  0  0  0  0  0  0  0  0
    1.3470    9.8227   15.5391 C   0  0  0  0  0  0  0  0  0  0  0  0
    0.2701    9.1337   14.9682 C   0  0  0  0  0  0  0  0  0  0  0  0
    0.4692    8.5434   13.7166 C   0  0  0  0  0  0  0  0  0  0  0  0
    1.6964    8.6395   13.0650 C   0  0  0  0  0  0  0  0  0  0  0  0
    2.7626    9.3322   13.6499 C   0  0  0  0  0  0  0  0  0  0  0  0
    2.5875    9.9372   14.9117 C   0  0  0  0  0  0  0  0  0  0  0  0
  1  2  1  0
  2  3  1  0
  3  4  1  0
  4  5  2  0
  4  6  1  0
  6  7  1  0
  7  8  2  0
  7  9  1  0
  9 10  1  0
 10 11  1  0
 11 12  2  0
 12 13  1  0
 13 14  1  0
 14 15  2  0
 15 16  1  0
 16 17  2  0
 17 18  1  0
 18 19  2  0
 19 11  1  0
 19 14  1  0
M  END
$$$$
