
     RDKit          3D

 23 25  0  0  0  0  0  0  0  0999 V2000
  -26.7198   -4.3978   12.1548 C   0  0  0  0  0  0  0  0  0  0  0  0
  -26.2098   -4.2424   10.8387 O   0  0  0  0  0  0  0  0  0  0  0  0
  -26.7635   -3.2713   10.0371 C   0  0  0  0  0  0  0  0  0  0  0  0
  -27.7689   -2.3976   10.4786 C   0  0  0  0  0  0  0  0  0  0  0  0
  -28.2607   -1.3903    9.6463 C   0  0  0  0  0  0  0  0  0  0  0  0
  -27.7607   -1.2390    8.3541 C   0  0  0  0  0  0  0  0  0  0  0  0
  -28.2844   -0.1642    7.4382 C   0  0  0  0  0  0  0  0  0  0  0  0
  -27.2628    0.8374    7.1578 N   0  0  0  0  0  0  0  0  0  0  0  0
  -26.7556   -2.1156    7.9156 C   0  0  0  0  0  0  0  0  0  0  0  0
  -26.2326   -3.1426    8.7277 C   0  0  0  0  0  0  0  0  0  0  0  0
  -25.2419   -3.9715    8.1958 N   0  0  0  0  0  0  0  0  0  0  0  0
  -25.2176   -5.3960    8.5465 C   0  0  0  0  0  0  0  0  0  0  0  0
  -24.9034   -6.1985    7.2921 C   0  0  0  0  0  0  0  0  0  0  0  0
  -25.0052   -7.4253    7.2457 O   0  0  0  0  0  0  0  0  0  0  0  0
  -24.4744   -5.3944    6.0870 C   0  0  0  0  0  0  0  0  0  0  0  0
  -23.4562   -4.3641    6.5547 C   0  0  0  0  0  0  0  0  0  0  0  0
  -23.9940   -3.3883    7.6564 C   0  0  0  0  0  0  0  0  0  0  0  0
  -22.8547   -3.0599    8.5460 N   0  0  0  0  0  0  0  0  0  0  0  0
  -23.2929   -2.3819    9.7784 C   0  0  0  0  0  0  0  0  0  0  0  0
  -22.1729   -1.6320   10.5185 C   0  0  0  0  0  0  0  0  0  0  0  0
  -20.8115   -2.2505   10.2465 C   0  0  0  0  0  0  0  0  0  0  0  0
  -20.5283   -2.2899    8.7443 C   0  0  0  0  0  0  0  0  0  0  0  0
  -21.8018   -2.2802    7.8877 C   0  0  0  0  0  0  0  0  0  0  0  0
  1  2  1  0
  2  3  1  0
  3  4  2  0
  4  5  1  0
  5  6  2  0
  6  7  1  0
  7  8  1  0
  6  9  1  0
  9 10  2  0
 10 11  1  0
 11 12  1  0
 12 13  1  0
 13 14  2  0
 13 15  1  0
 15 16  1  0
 16 17  1  0
 17 18  1  0
 18 19  1  0
 19 20  1  0
 20 21  1  0
 21 22  1  0
 22 23  1  0
 10  3  1  0
 17 11  1  0
 23 18  1  0
M  END
$$$$
