
     RDKit          3D

 25 26  0  0  0  0  0  0  0  0999 V2000
  -11.2868  -18.7831  -66.1236 C   0  0  0  0  0  0  0  0  0  0  0  0
  -10.4927  -18.5154  -64.9342 N   0  0  0  0  0  0  0  0  0  0  0  0
  -11.0916  -17.4502  -64.1309 C   0  0  0  0  0  0  0  0  0  0  0  0
  -10.2177  -17.1175  -62.9447 C   0  0  0  0  0  0  0  0  0  0  0  0
  -10.0752  -18.0275  -61.8915 C   0  0  0  0  0  0  0  0  0  0  0  0
   -9.2506  -17.7362  -60.8008 C   0  0  0  0  0  0  0  0  0  0  0  0
   -8.5508  -16.5284  -60.7445 C   0  0  0  0  0  0  0  0  0  0  0  0
   -7.7105  -16.1597  -59.7242 O   0  0  0  0  0  0  0  0  0  0  0  0
   -7.3561  -17.1738  -58.7886 C   0  0  0  0  0  0  0  0  0  0  0  0
   -8.6963  -15.5959  -61.7872 C   0  0  0  0  0  0  0  0  0  0  0  0
   -7.9442  -14.2861  -61.7771 C   0  0  0  0  0  0  0  0  0  0  0  0
   -6.5236  -14.4398  -62.2874 C   0  0  0  0  0  0  0  0  0  0  0  0
   -6.2309  -14.3251  -63.4753 O   0  0  0  0  0  0  0  0  0  0  0  0
   -5.5960  -14.7109  -61.3028 N   0  0  0  0  0  0  0  0  0  0  0  0
   -4.2362  -15.0775  -61.6522 C   0  0  0  0  0  0  0  0  0  0  0  0
   -4.1047  -16.5959  -61.6109 C   0  0  0  0  0  0  0  0  0  0  0  0
   -4.7036  -17.2750  -60.7742 O   0  0  0  0  0  0  0  0  0  0  0  0
   -3.1994  -17.2744  -62.5819 C   0  0  0  0  0  0  0  0  0  0  0  0
   -2.1626  -16.5984  -63.2401 C   0  0  0  0  0  0  0  0  0  0  0  0
   -1.3386  -17.2877  -64.1350 C   0  0  0  0  0  0  0  0  0  0  0  0
   -1.5480  -18.6435  -64.3638 C   0  0  0  0  0  0  0  0  0  0  0  0
   -0.7537  -19.2974  -65.2207 F   0  0  0  0  0  0  0  0  0  0  0  0
   -2.5654  -19.3292  -63.7124 C   0  0  0  0  0  0  0  0  0  0  0  0
   -3.3909  -18.6454  -62.8177 C   0  0  0  0  0  0  0  0  0  0  0  0
   -9.5183  -15.9058  -62.8854 C   0  0  0  0  0  0  0  0  0  0  0  0
  1  2  1  0
  2  3  1  0
  3  4  1  0
  4  5  2  0
  5  6  1  0
  6  7  2  0
  7  8  1  0
  8  9  1  0
  7 10  1  0
 10 11  1  0
 11 12  1  0
 12 13  2  0
 12 14  1  0
 14 15  1  0
 15 16  1  0
 16 17  2  0
 16 18  1  0
 18 19  2  0
 19 20  1  0
 20 21  2  0
 21 22  1  0
 21 23  1  0
 23 24  2  0
 10 25  2  0
 25  4  1  0
 24 18  1  0
M  END
$$$$
