
     RDKit          3D

 23 25  0  0  0  0  0  0  0  0999 V2000
  -26.9475    7.8834   -0.4456 C   0  0  0  0  0  0  0  0  0  0  0  0
  -26.4124    9.1877   -0.0728 N   0  0  0  0  0  0  0  0  0  0  0  0
  -25.3488    9.6302   -0.9843 C   0  0  0  0  0  0  0  0  0  0  0  0
  -25.8069   10.0769   -2.3891 C   0  0  0  0  0  0  0  0  0  0  0  0
  -26.6839   11.3386   -2.3242 C   0  0  0  0  0  0  0  0  0  0  0  0
  -27.3509   11.6306   -3.6402 C   0  0  0  0  0  0  0  0  0  0  0  0
  -26.9006   12.5022   -4.6124 C   0  0  0  0  0  0  0  0  0  0  0  0
  -27.7846   12.4786   -5.6554 N   0  0  0  0  0  0  0  0  0  0  0  0
  -28.8067   11.5977   -5.3921 C   0  0  0  0  0  0  0  0  0  0  0  0
  -29.9175   11.2486   -6.1679 C   0  0  0  0  0  0  0  0  0  0  0  0
  -30.8098   10.3120   -5.6381 C   0  0  0  0  0  0  0  0  0  0  0  0
  -30.5978    9.7504   -4.3823 C   0  0  0  0  0  0  0  0  0  0  0  0
  -29.4808   10.1097   -3.6208 C   0  0  0  0  0  0  0  0  0  0  0  0
  -28.5650   11.0532   -4.1315 C   0  0  0  0  0  0  0  0  0  0  0  0
  -24.6188   10.3876   -3.1402 O   0  0  0  0  0  0  0  0  0  0  0  0
  -24.3135    9.3928   -4.1091 C   0  0  0  0  0  0  0  0  0  0  0  0
  -22.9684    9.5948   -4.6462 N   0  0  0  0  0  0  0  0  0  0  0  0
  -22.8458   10.9086   -5.2889 C   0  0  0  0  0  0  0  0  0  0  0  0
  -21.3949   11.1377   -5.7144 C   0  0  0  0  0  0  0  0  0  0  0  0
  -20.9191   10.0686   -6.6849 C   0  0  0  0  0  0  0  0  0  0  0  0
  -21.2449    8.6932   -6.1490 C   0  0  0  0  0  0  0  0  0  0  0  0
  -20.4713    7.7474   -6.3042 O   0  0  0  0  0  0  0  0  0  0  0  0
  -22.6409    8.5034   -5.5792 C   0  0  0  0  0  0  0  0  0  0  0  0
  1  2  1  0
  2  3  1  0
  3  4  1  0
  4  5  1  0
  5  6  1  0
  6  7  2  0
  7  8  1  0
  8  9  1  0
  9 10  2  0
 10 11  1  0
 11 12  2  0
 12 13  1  0
 13 14  2  0
  4 15  1  0
 15 16  1  0
 16 17  1  0
 17 18  1  0
 18 19  1  0
 19 20  1  0
 20 21  1  0
 21 22  2  0
 21 23  1  0
 14  6  1  0
 23 17  1  0
 14  9  1  0
M  END
$$$$
