
     RDKit          3D

 26 28  0  0  0  0  0  0  0  0999 V2000
    3.1037  -12.6232   -6.0706 C   0  0  0  0  0  0  0  0  0  0  0  0
    2.6304  -13.4509   -7.1498 N   0  0  0  0  0  0  0  0  0  0  0  0
    2.5224  -14.8223   -7.0010 C   0  0  0  0  0  0  0  0  0  0  0  0
    2.7130  -15.3865   -5.9274 O   0  0  0  0  0  0  0  0  0  0  0  0
    2.1061  -15.5362   -8.2754 C   0  0  0  0  0  0  0  0  0  0  0  0
    2.6473  -16.9425   -8.4137 C   0  0  0  0  0  0  0  0  0  0  0  0
    1.9051  -17.9854   -7.8228 C   0  0  0  0  0  0  0  0  0  0  0  0
    2.2639  -19.3223   -7.9962 C   0  0  0  0  0  0  0  0  0  0  0  0
    3.3668  -19.6406   -8.7760 C   0  0  0  0  0  0  0  0  0  0  0  0
    3.8244  -20.9008   -9.0503 O   0  0  0  0  0  0  0  0  0  0  0  0
    3.1233  -21.9811   -8.4474 C   0  0  0  0  0  0  0  0  0  0  0  0
    4.1142  -18.6069   -9.3497 C   0  0  0  0  0  0  0  0  0  0  0  0
    3.8059  -17.2458   -9.1558 C   0  0  0  0  0  0  0  0  0  0  0  0
    4.6307  -16.2758   -9.7124 N   0  0  0  0  0  0  0  0  0  0  0  0
    4.7085  -16.1717  -11.1580 C   0  0  0  0  0  0  0  0  0  0  0  0
    3.5287  -15.5296  -11.6285 O   0  0  0  0  0  0  0  0  0  0  0  0
    5.9197  -15.3526  -11.6065 C   0  0  0  0  0  0  0  0  0  0  0  0
    5.9764  -13.9775  -10.9331 C   0  0  0  0  0  0  0  0  0  0  0  0
    5.3443  -13.9861   -9.5374 C   0  0  0  0  0  0  0  0  0  0  0  0
    5.4434  -15.3854   -8.8661 C   0  0  0  0  0  0  0  0  0  0  0  0
    6.8758  -15.6794   -8.5862 N   0  0  0  0  0  0  0  0  0  0  0  0
    7.0907  -17.0682   -8.1834 C   0  0  0  0  0  0  0  0  0  0  0  0
    8.5881  -17.3974   -8.1027 C   0  0  0  0  0  0  0  0  0  0  0  0
    9.4298  -16.2764   -7.4986 C   0  0  0  0  0  0  0  0  0  0  0  0
    8.5573  -15.3148   -6.7135 C   0  0  0  0  0  0  0  0  0  0  0  0
    7.4415  -14.7393   -7.5952 C   0  0  0  0  0  0  0  0  0  0  0  0
  1  2  1  0
  2  3  1  0
  3  4  2  0
  3  5  1  0
  5  6  1  0
  6  7  2  0
  7  8  1  0
  8  9  2  0
  9 10  1  0
 10 11  1  0
  9 12  1  0
 12 13  2  0
 13 14  1  0
 14 15  1  0
 15 16  1  0
 15 17  1  0
 17 18  1  0
 18 19  1  0
 19 20  1  0
 20 21  1  0
 21 22  1  0
 22 23  1  0
 23 24  1  0
 24 25  1  0
 25 26  1  0
 13  6  1  0
 20 14  1  0
 26 21  1  0
M  END
$$$$
