
     RDKit          3D

 21 22  0  0  0  0  0  0  0  0999 V2000
    1.4722   -3.9589  -18.6825 C   0  0  0  0  0  0  0  0  0  0  0  0
    1.9940   -4.1669  -17.3787 O   0  0  0  0  0  0  0  0  0  0  0  0
    1.1139   -4.5399  -16.3928 C   0  0  0  0  0  0  0  0  0  0  0  0
   -0.2727   -4.6153  -16.5591 C   0  0  0  0  0  0  0  0  0  0  0  0
   -1.0949   -4.9975  -15.4952 C   0  0  0  0  0  0  0  0  0  0  0  0
   -0.5457   -5.3109  -14.2478 C   0  0  0  0  0  0  0  0  0  0  0  0
   -1.4331   -5.7043  -13.0936 C   0  0  0  0  0  0  0  0  0  0  0  0
   -1.0531   -6.9979  -12.5377 N   0  0  0  0  0  0  0  0  0  0  0  0
    0.8468   -5.2276  -14.0811 C   0  0  0  0  0  0  0  0  0  0  0  0
    1.6802   -4.8493  -15.1408 C   0  0  0  0  0  0  0  0  0  0  0  0
    3.0476   -4.7532  -15.0580 O   0  0  0  0  0  0  0  0  0  0  0  0
    3.6631   -5.0675  -13.8071 C   0  0  0  0  0  0  0  0  0  0  0  0
    5.1766   -4.8957  -13.9476 C   0  0  0  0  0  0  0  0  0  0  0  0
    5.7038   -6.0120  -14.6717 O   0  0  0  0  0  0  0  0  0  0  0  0
    7.0511   -6.0259  -14.9007 C   0  0  0  0  0  0  0  0  0  0  0  0
    7.5119   -7.1374  -15.6073 C   0  0  0  0  0  0  0  0  0  0  0  0
    8.8701   -7.2789  -15.9077 C   0  0  0  0  0  0  0  0  0  0  0  0
    9.7833   -6.2887  -15.5455 C   0  0  0  0  0  0  0  0  0  0  0  0
   11.1549   -6.4850  -15.7427 N   0  0  0  0  0  0  0  0  0  0  0  0
    9.3274   -5.2080  -14.7878 C   0  0  0  0  0  0  0  0  0  0  0  0
    7.9675   -5.0629  -14.4833 C   0  0  0  0  0  0  0  0  0  0  0  0
  1  2  1  0
  2  3  1  0
  3  4  2  0
  4  5  1  0
  5  6  2  0
  6  7  1  0
  7  8  1  0
  6  9  1  0
  9 10  2  0
 10 11  1  0
 11 12  1  0
 12 13  1  0
 13 14  1  0
 14 15  1  0
 15 16  2  0
 16 17  1  0
 17 18  2  0
 18 19  1  0
 18 20  1  0
 20 21  2  0
 10  3  1  0
 21 15  1  0
M  END
$$$$
