
     RDKit          3D

 19 20  0  0  0  0  0  0  0  0999 V2000
   -2.2738  -15.0297   10.0373 N   0  0  0  0  0  0  0  0  0  0  0  0
   -1.7667  -15.5474    8.7718 C   0  0  0  0  0  0  0  0  0  0  0  0
   -1.7367  -14.4684    7.6996 C   0  0  0  0  0  0  0  0  0  0  0  0
   -3.1288  -14.0880    7.2394 C   0  0  0  0  0  0  0  0  0  0  0  0
   -3.8855  -14.9082    6.7157 O   0  0  0  0  0  0  0  0  0  0  0  0
   -3.5574  -12.6610    7.4292 C   0  0  0  0  0  0  0  0  0  0  0  0
   -3.9931  -12.3539    8.8350 C   0  0  0  0  0  0  0  0  0  0  0  0
   -3.1997  -11.8778    9.6500 O   0  0  0  0  0  0  0  0  0  0  0  0
   -5.4233  -12.6698    9.2117 C   0  0  0  0  0  0  0  0  0  0  0  0
   -5.5154  -13.9756    9.9868 C   0  0  0  0  0  0  0  0  0  0  0  0
   -6.9357  -14.3621   10.2515 C   0  0  0  0  0  0  0  0  0  0  0  0
   -7.6823  -14.0422   11.3682 C   0  0  0  0  0  0  0  0  0  0  0  0
   -8.9326  -14.5785   11.2166 N   0  0  0  0  0  0  0  0  0  0  0  0
   -9.0243  -15.2435   10.0163 C   0  0  0  0  0  0  0  0  0  0  0  0
  -10.1012  -15.9325    9.4454 C   0  0  0  0  0  0  0  0  0  0  0  0
   -9.9020  -16.5228    8.1938 C   0  0  0  0  0  0  0  0  0  0  0  0
   -8.6748  -16.4267    7.5422 C   0  0  0  0  0  0  0  0  0  0  0  0
   -7.6086  -15.7339    8.1271 C   0  0  0  0  0  0  0  0  0  0  0  0
   -7.7838  -15.1289    9.3890 C   0  0  0  0  0  0  0  0  0  0  0  0
  1  2  1  0
  2  3  1  0
  3  4  1  0
  4  5  2  0
  4  6  1  0
  6  7  1  0
  7  8  2  0
  7  9  1  0
  9 10  1  0
 10 11  1  0
 11 12  2  0
 12 13  1  0
 13 14  1  0
 14 15  2  0
 15 16  1  0
 16 17  2  0
 17 18  1  0
 18 19  2  0
 19 11  1  0
 19 14  1  0
M  END
$$$$
