
     RDKit          3D

 27 30  0  0  0  0  0  0  0  0999 V2000
  -10.7546   -4.4728   20.9363 N   0  0  0  0  0  0  0  0  0  0  0  0
  -11.1523   -3.3952   20.2032 C   0  0  0  0  0  0  0  0  0  0  0  0
  -10.8476   -2.2618   20.5590 O   0  0  0  0  0  0  0  0  0  0  0  0
  -11.9702   -3.6515   18.9750 C   0  0  0  0  0  0  0  0  0  0  0  0
  -12.5829   -2.5135   18.4136 C   0  0  0  0  0  0  0  0  0  0  0  0
  -13.3956   -2.6135   17.2860 C   0  0  0  0  0  0  0  0  0  0  0  0
  -13.6133   -3.8551   16.7055 C   0  0  0  0  0  0  0  0  0  0  0  0
  -13.0075   -4.9930   17.2435 C   0  0  0  0  0  0  0  0  0  0  0  0
  -12.1601   -4.9221   18.3718 C   0  0  0  0  0  0  0  0  0  0  0  0
  -11.5405   -6.1058   18.8883 N   0  0  0  0  0  0  0  0  0  0  0  0
  -12.5699   -6.9591   19.5267 C   0  0  0  0  0  0  0  0  0  0  0  0
  -11.8804   -7.9940   20.4171 C   0  0  0  0  0  0  0  0  0  0  0  0
  -10.5460   -8.4807   19.8513 C   0  0  0  0  0  0  0  0  0  0  0  0
  -10.4721   -8.3057   18.3378 C   0  0  0  0  0  0  0  0  0  0  0  0
  -10.7193   -6.8490   17.8775 C   0  0  0  0  0  0  0  0  0  0  0  0
   -9.4171   -6.0974   17.5303 C   0  0  0  0  0  0  0  0  0  0  0  0
   -8.3647   -6.0561   18.6364 C   0  0  0  0  0  0  0  0  0  0  0  0
   -7.2083   -5.3022   18.1704 N   0  0  0  0  0  0  0  0  0  0  0  0
   -6.1958   -5.1444   19.1280 C   0  0  0  0  0  0  0  0  0  0  0  0
   -5.9592   -6.1021   20.0663 N   0  0  0  0  0  0  0  0  0  0  0  0
   -4.9625   -5.9074   20.9587 C   0  0  0  0  0  0  0  0  0  0  0  0
   -4.1317   -4.8513   21.0726 N   0  0  0  0  0  0  0  0  0  0  0  0
   -4.4080   -3.9367   20.1332 C   0  0  0  0  0  0  0  0  0  0  0  0
   -3.7826   -2.7391   19.9431 N   0  0  0  0  0  0  0  0  0  0  0  0
   -4.3860   -2.1217   18.8809 C   0  0  0  0  0  0  0  0  0  0  0  0
   -5.3591   -2.8508   18.3761 N   0  0  0  0  0  0  0  0  0  0  0  0
   -5.3823   -3.9942   19.1527 C   0  0  0  0  0  0  0  0  0  0  0  0
  1  2  1  0
  2  3  2  0
  2  4  1  0
  4  5  2  0
  5  6  1  0
  6  7  2  0
  7  8  1  0
  8  9  2  0
  9 10  1  0
 10 11  1  0
 11 12  1  0
 12 13  1  0
 13 14  1  0
 14 15  1  0
 15 16  1  0
 16 17  1  0
 17 18  1  0
 18 19  1  0
 19 20  2  0
 20 21  1  0
 21 22  2  0
 22 23  1  0
 23 24  1  0
 24 25  1  0
 25 26  2  0
 26 27  1  0
  9  4  1  0
 15 10  1  0
 27 19  1  0
 27 23  2  0
M  END
$$$$
