
     RDKit          3D

 20 21  0  0  0  0  0  0  0  0999 V2000
  -58.0491  -26.6588  -19.4817 C   0  0  0  0  0  0  0  0  0  0  0  0
  -57.9044  -25.3356  -18.8775 N   0  0  0  0  0  0  0  0  0  0  0  0
  -58.2921  -24.2722  -19.8178 C   0  0  0  0  0  0  0  0  0  0  0  0
  -59.7972  -24.2646  -20.0618 C   0  0  0  0  0  0  0  0  0  0  0  0
  -60.2484  -24.5391  -21.1765 O   0  0  0  0  0  0  0  0  0  0  0  0
  -60.6704  -23.9479  -18.8573 C   0  0  0  0  0  0  0  0  0  0  0  0
  -62.0055  -23.3303  -19.2048 C   0  0  0  0  0  0  0  0  0  0  0  0
  -62.0107  -21.9496  -19.4942 C   0  0  0  0  0  0  0  0  0  0  0  0
  -63.1923  -21.2789  -19.8079 C   0  0  0  0  0  0  0  0  0  0  0  0
  -64.3989  -21.9664  -19.8460 C   0  0  0  0  0  0  0  0  0  0  0  0
  -65.4878  -21.2012  -20.1618 O   0  0  0  0  0  0  0  0  0  0  0  0
  -66.7333  -21.8790  -20.2694 C   0  0  0  0  0  0  0  0  0  0  0  0
  -64.4037  -23.3331  -19.5680 C   0  0  0  0  0  0  0  0  0  0  0  0
  -63.2214  -24.0399  -19.2533 C   0  0  0  0  0  0  0  0  0  0  0  0
  -63.3882  -25.4079  -19.0054 N   0  0  0  0  0  0  0  0  0  0  0  0
  -62.6848  -26.3259  -19.9055 C   0  0  0  0  0  0  0  0  0  0  0  0
  -63.3358  -27.7067  -19.8072 C   0  0  0  0  0  0  0  0  0  0  0  0
  -63.3736  -28.1947  -18.3587 C   0  0  0  0  0  0  0  0  0  0  0  0
  -64.0526  -27.1670  -17.4531 C   0  0  0  0  0  0  0  0  0  0  0  0
  -63.4073  -25.7867  -17.5904 C   0  0  0  0  0  0  0  0  0  0  0  0
  1  2  1  0
  2  3  1  0
  3  4  1  0
  4  5  2  0
  4  6  1  0
  6  7  1  0
  7  8  2  0
  8  9  1  0
  9 10  2  0
 10 11  1  0
 11 12  1  0
 10 13  1  0
 13 14  2  0
 14 15  1  0
 15 16  1  0
 16 17  1  0
 17 18  1  0
 18 19  1  0
 19 20  1  0
 14  7  1  0
 20 15  1  0
M  END
$$$$
