
     RDKit          3D

 26 28  0  0  0  0  0  0  0  0999 V2000
   19.0778   19.4649   11.3351 C   0  0  0  0  0  0  0  0  0  0  0  0
   19.6248   20.4691   10.4603 N   0  0  0  0  0  0  0  0  0  0  0  0
   20.5954   21.3416   10.8974 C   0  0  0  0  0  0  0  0  0  0  0  0
   21.1151   21.2763   12.0011 O   0  0  0  0  0  0  0  0  0  0  0  0
   20.9928   22.3700    9.8595 C   0  0  0  0  0  0  0  0  0  0  0  0
   20.2936   23.6968   10.0463 C   0  0  0  0  0  0  0  0  0  0  0  0
   20.9010   24.6382   10.8956 C   0  0  0  0  0  0  0  0  0  0  0  0
   20.3189   25.8844   11.1277 C   0  0  0  0  0  0  0  0  0  0  0  0
   19.1181   26.2112   10.5109 C   0  0  0  0  0  0  0  0  0  0  0  0
   18.4459   27.3954   10.6373 O   0  0  0  0  0  0  0  0  0  0  0  0
   19.0636   28.3980   11.4347 C   0  0  0  0  0  0  0  0  0  0  0  0
   18.4989   25.2745    9.6776 C   0  0  0  0  0  0  0  0  0  0  0  0
   19.0534   24.0028    9.4411 C   0  0  0  0  0  0  0  0  0  0  0  0
   18.4341   23.0569    8.5749 N   0  0  0  0  0  0  0  0  0  0  0  0
   18.9183   23.3217    7.1924 C   0  0  0  0  0  0  0  0  0  0  0  0
   18.4025   22.2919    6.1941 C   0  0  0  0  0  0  0  0  0  0  0  0
   18.9557   22.1369    5.0893 O   0  0  0  0  0  0  0  0  0  0  0  0
   17.0751   21.6101    6.4709 C   0  0  0  0  0  0  0  0  0  0  0  0
   16.6054   21.6468    7.9234 C   0  0  0  0  0  0  0  0  0  0  0  0
   16.9453   22.9894    8.6143 C   0  0  0  0  0  0  0  0  0  0  0  0
   16.2002   23.1602    9.8623 N   0  0  0  0  0  0  0  0  0  0  0  0
   14.8025   23.5368    9.7146 C   0  0  0  0  0  0  0  0  0  0  0  0
   14.2653   24.0419   11.0525 C   0  0  0  0  0  0  0  0  0  0  0  0
   14.4357   23.0256   12.1819 C   0  0  0  0  0  0  0  0  0  0  0  0
   15.2710   21.8221   11.7618 C   0  0  0  0  0  0  0  0  0  0  0  0
   16.4993   22.2258   10.9430 C   0  0  0  0  0  0  0  0  0  0  0  0
  1  2  1  0
  2  3  1  0
  3  4  2  0
  3  5  1  0
  5  6  1  0
  6  7  2  0
  7  8  1  0
  8  9  2  0
  9 10  1  0
 10 11  1  0
  9 12  1  0
 12 13  2  0
 13 14  1  0
 14 15  1  0
 15 16  1  0
 16 17  2  0
 16 18  1  0
 18 19  1  0
 19 20  1  0
 20 21  1  0
 21 22  1  0
 22 23  1  0
 23 24  1  0
 24 25  1  0
 25 26  1  0
 13  6  1  0
 20 14  1  0
 26 21  1  0
M  END
$$$$
