
     RDKit          3D

 23 25  0  0  0  0  0  0  0  0999 V2000
  -43.7983    4.3982   66.4776 C   0  0  0  0  0  0  0  0  0  0  0  0
  -43.2883    4.5536   65.1614 O   0  0  0  0  0  0  0  0  0  0  0  0
  -43.8420    5.5247   64.3598 C   0  0  0  0  0  0  0  0  0  0  0  0
  -44.8474    6.3984   64.8014 C   0  0  0  0  0  0  0  0  0  0  0  0
  -45.3392    7.4057   63.9690 C   0  0  0  0  0  0  0  0  0  0  0  0
  -44.8392    7.5570   62.6768 C   0  0  0  0  0  0  0  0  0  0  0  0
  -45.3629    8.6317   61.7609 C   0  0  0  0  0  0  0  0  0  0  0  0
  -44.3413    9.6334   61.4805 N   0  0  0  0  0  0  0  0  0  0  0  0
  -43.8341    6.6804   62.2383 C   0  0  0  0  0  0  0  0  0  0  0  0
  -43.3111    5.6534   63.0505 C   0  0  0  0  0  0  0  0  0  0  0  0
  -42.3204    4.8245   62.5185 N   0  0  0  0  0  0  0  0  0  0  0  0
  -42.2961    3.4000   62.8692 C   0  0  0  0  0  0  0  0  0  0  0  0
  -41.9819    2.5975   61.6148 C   0  0  0  0  0  0  0  0  0  0  0  0
  -42.0837    1.3707   61.5684 O   0  0  0  0  0  0  0  0  0  0  0  0
  -41.5529    3.4016   60.4098 C   0  0  0  0  0  0  0  0  0  0  0  0
  -40.5347    4.4319   60.8775 C   0  0  0  0  0  0  0  0  0  0  0  0
  -41.0725    5.4077   61.9791 C   0  0  0  0  0  0  0  0  0  0  0  0
  -39.9332    5.7361   62.8687 N   0  0  0  0  0  0  0  0  0  0  0  0
  -40.3714    6.4141   64.1011 C   0  0  0  0  0  0  0  0  0  0  0  0
  -39.2514    7.1640   64.8412 C   0  0  0  0  0  0  0  0  0  0  0  0
  -37.8900    6.5455   64.5693 C   0  0  0  0  0  0  0  0  0  0  0  0
  -37.6068    6.5061   63.0671 C   0  0  0  0  0  0  0  0  0  0  0  0
  -38.8803    6.5158   62.2104 C   0  0  0  0  0  0  0  0  0  0  0  0
  1  2  1  0
  2  3  1  0
  3  4  2  0
  4  5  1  0
  5  6  2  0
  6  7  1  0
  7  8  1  0
  6  9  1  0
  9 10  2  0
 10 11  1  0
 11 12  1  0
 12 13  1  0
 13 14  2  0
 13 15  1  0
 15 16  1  0
 16 17  1  0
 17 18  1  0
 18 19  1  0
 19 20  1  0
 20 21  1  0
 21 22  1  0
 22 23  1  0
 10  3  1  0
 17 11  1  0
 23 18  1  0
M  END
$$$$
