
     RDKit          3D

 30 32  0  0  0  0  0  0  0  0999 V2000
   21.6916    6.9708   11.0664 C   0  0  0  0  0  0  0  0  0  0  0  0
   20.5798    6.3346   10.3775 N   0  0  0  0  0  0  0  0  0  0  0  0
   19.3925    6.2818   11.2292 C   0  0  0  0  0  0  0  0  0  0  0  0
   18.2166    5.7065   10.4748 C   0  0  0  0  0  0  0  0  0  0  0  0
   18.2154    4.3629   10.0766 C   0  0  0  0  0  0  0  0  0  0  0  0
   17.1280    3.8204    9.3845 C   0  0  0  0  0  0  0  0  0  0  0  0
   16.0203    4.6116    9.0724 C   0  0  0  0  0  0  0  0  0  0  0  0
   14.9037    4.1630    8.4185 O   0  0  0  0  0  0  0  0  0  0  0  0
   14.8487    2.7805    8.0917 C   0  0  0  0  0  0  0  0  0  0  0  0
   16.0142    5.9699    9.4430 C   0  0  0  0  0  0  0  0  0  0  0  0
   14.8323    6.8645    9.1353 C   0  0  0  0  0  0  0  0  0  0  0  0
   13.8476    6.7334   10.2089 N   0  0  0  0  0  0  0  0  0  0  0  0
   12.6091    7.3766    9.9403 C   0  0  0  0  0  0  0  0  0  0  0  0
   12.5560    8.7416    9.6284 C   0  0  0  0  0  0  0  0  0  0  0  0
   11.3355    9.3559    9.3622 C   0  0  0  0  0  0  0  0  0  0  0  0
   10.1607    8.6026    9.4291 C   0  0  0  0  0  0  0  0  0  0  0  0
    8.6022    9.3807    9.0994 S   0  0  0  0  0  0  0  0  0  0  0  0
    8.0458    9.6853   10.6604 N   0  0  0  0  0  0  0  0  0  0  0  0
    7.7267    8.4135    8.4888 O   0  0  0  0  0  0  0  0  0  0  0  0
    8.8513   10.6813    8.5222 O   0  0  0  0  0  0  0  0  0  0  0  0
   10.1869    7.2402    9.7552 C   0  0  0  0  0  0  0  0  0  0  0  0
   11.4067    6.6141   10.0447 C   0  0  0  0  0  0  0  0  0  0  0  0
   11.5004    5.2600   10.4261 N   0  0  0  0  0  0  0  0  0  0  0  0
   11.6930    5.0520   11.8738 C   0  0  0  0  0  0  0  0  0  0  0  0
   10.3484    4.9695   12.5923 C   0  0  0  0  0  0  0  0  0  0  0  0
    9.4896    3.8532   12.0171 C   0  0  0  0  0  0  0  0  0  0  0  0
    9.3487    4.0111   10.5198 C   0  0  0  0  0  0  0  0  0  0  0  0
    8.2748    3.8007    9.9566 O   0  0  0  0  0  0  0  0  0  0  0  0
   10.6277    4.2891    9.7427 C   0  0  0  0  0  0  0  0  0  0  0  0
   17.1096    6.5002   10.1522 C   0  0  0  0  0  0  0  0  0  0  0  0
  1  2  1  0
  2  3  1  0
  3  4  1  0
  4  5  2  0
  5  6  1  0
  6  7  2  0
  7  8  1  0
  8  9  1  0
  7 10  1  0
 10 11  1  0
 11 12  1  0
 12 13  1  0
 13 14  2  0
 14 15  1  0
 15 16  2  0
 16 17  1  0
 17 18  1  0
 17 19  2  0
 17 20  2  0
 16 21  1  0
 21 22  2  0
 22 23  1  0
 23 24  1  0
 24 25  1  0
 25 26  1  0
 26 27  1  0
 27 28  2  0
 27 29  1  0
 10 30  2  0
 30  4  1  0
 22 13  1  0
 29 23  1  0
M  END
$$$$
