
     RDKit          3D

 27 29  0  0  0  0  0  0  0  0999 V2000
   -3.7820    5.6324    9.9467 N   0  0  0  0  0  0  0  0  0  0  0  0
   -3.8186    4.3991    9.1666 C   0  0  0  0  0  0  0  0  0  0  0  0
   -3.4638    3.1845   10.0125 C   0  0  0  0  0  0  0  0  0  0  0  0
   -3.4868    1.9370    9.1639 C   0  0  0  0  0  0  0  0  0  0  0  0
   -2.4709    1.4254    8.7098 O   0  0  0  0  0  0  0  0  0  0  0  0
   -4.8592    1.3429    8.8596 C   0  0  0  0  0  0  0  0  0  0  0  0
   -5.8508    1.8902    9.3268 O   0  0  0  0  0  0  0  0  0  0  0  0
   -4.9869    0.1309    8.0128 C   0  0  0  0  0  0  0  0  0  0  0  0
   -4.1249   -0.9463    8.2379 C   0  0  0  0  0  0  0  0  0  0  0  0
   -4.2803   -2.0832    7.4679 C   0  0  0  0  0  0  0  0  0  0  0  0
   -5.2265   -2.2159    6.5193 N   0  0  0  0  0  0  0  0  0  0  0  0
   -6.0518   -1.1652    6.3223 C   0  0  0  0  0  0  0  0  0  0  0  0
   -5.9856    0.0328    7.0294 C   0  0  0  0  0  0  0  0  0  0  0  0
   -6.9733    1.1255    6.7038 C   0  0  0  0  0  0  0  0  0  0  0  0
   -8.3022    0.9454    7.4527 C   0  0  0  0  0  0  0  0  0  0  0  0
   -9.2071    2.0519    7.1321 N   0  0  0  0  0  0  0  0  0  0  0  0
  -10.5428    1.8774    7.7215 C   0  0  0  0  0  0  0  0  0  0  0  0
  -10.5962    2.0706    9.2460 C   0  0  0  0  0  0  0  0  0  0  0  0
  -11.9945    1.9891    9.7766 C   0  0  0  0  0  0  0  0  0  0  0  0
  -12.6027    0.8710   10.3138 C   0  0  0  0  0  0  0  0  0  0  0  0
  -13.8779    1.2082   10.6791 N   0  0  0  0  0  0  0  0  0  0  0  0
  -14.1221    2.5304   10.3915 C   0  0  0  0  0  0  0  0  0  0  0  0
  -15.2762    3.2983   10.5889 C   0  0  0  0  0  0  0  0  0  0  0  0
  -15.2380    4.6388   10.1944 C   0  0  0  0  0  0  0  0  0  0  0  0
  -14.0907    5.1865    9.6261 C   0  0  0  0  0  0  0  0  0  0  0  0
  -12.9457    4.4042    9.4361 C   0  0  0  0  0  0  0  0  0  0  0  0
  -12.9573    3.0488    9.8253 C   0  0  0  0  0  0  0  0  0  0  0  0
  1  2  1  0
  2  3  1  0
  3  4  1  0
  4  5  2  0
  4  6  1  0
  6  7  2  0
  6  8  1  0
  8  9  2  0
  9 10  1  0
 10 11  2  0
 11 12  1  0
 12 13  2  0
 13 14  1  0
 14 15  1  0
 15 16  1  0
 16 17  1  0
 17 18  1  0
 18 19  1  0
 19 20  2  0
 20 21  1  0
 21 22  1  0
 22 23  2  0
 23 24  1  0
 24 25  2  0
 25 26  1  0
 26 27  2  0
 13  8  1  0
 27 19  1  0
 27 22  1  0
M  END
$$$$
