
     RDKit          3D

 22 24  0  0  0  0  0  0  0  0999 V2000
   15.4434  -15.7102  -25.5480 N   0  0  0  0  0  0  0  0  0  0  0  0
   15.4127  -16.3259  -26.8828 C   0  0  0  0  0  0  0  0  0  0  0  0
   16.8061  -16.3202  -27.4946 C   0  0  0  0  0  0  0  0  0  0  0  0
   17.5811  -15.3704  -27.3800 O   0  0  0  0  0  0  0  0  0  0  0  0
   17.1878  -17.4537  -28.3584 C   0  0  0  0  0  0  0  0  0  0  0  0
   17.2853  -17.1669  -29.7245 C   0  0  0  0  0  0  0  0  0  0  0  0
   17.6731  -18.1821  -30.5739 C   0  0  0  0  0  0  0  0  0  0  0  0
   17.9664  -19.4263  -30.1523 N   0  0  0  0  0  0  0  0  0  0  0  0
   17.8890  -19.6565  -28.8175 C   0  0  0  0  0  0  0  0  0  0  0  0
   17.5105  -18.7229  -27.8473 C   0  0  0  0  0  0  0  0  0  0  0  0
   17.4779  -19.0190  -26.4719 N   0  0  0  0  0  0  0  0  0  0  0  0
   16.2704  -19.7418  -26.0419 C   0  0  0  0  0  0  0  0  0  0  0  0
   16.3789  -21.2503  -26.2362 C   0  0  0  0  0  0  0  0  0  0  0  0
   17.7362  -21.8055  -25.8291 C   0  0  0  0  0  0  0  0  0  0  0  0
   18.5602  -20.7809  -25.0616 C   0  0  0  0  0  0  0  0  0  0  0  0
   18.7771  -19.4580  -25.8598 C   0  0  0  0  0  0  0  0  0  0  0  0
   19.4871  -18.5382  -24.9381 N   0  0  0  0  0  0  0  0  0  0  0  0
   19.3367  -17.1294  -25.3377 C   0  0  0  0  0  0  0  0  0  0  0  0
   20.3181  -16.1690  -24.6465 C   0  0  0  0  0  0  0  0  0  0  0  0
   20.8341  -16.7400  -23.3356 C   0  0  0  0  0  0  0  0  0  0  0  0
   21.4850  -18.1042  -23.5653 C   0  0  0  0  0  0  0  0  0  0  0  0
   20.9126  -18.8487  -24.7804 C   0  0  0  0  0  0  0  0  0  0  0  0
  1  2  1  0
  2  3  1  0
  3  4  2  0
  3  5  1  0
  5  6  2  0
  6  7  1  0
  7  8  2  0
  8  9  1  0
  9 10  2  0
 10 11  1  0
 11 12  1  0
 12 13  1  0
 13 14  1  0
 14 15  1  0
 15 16  1  0
 16 17  1  0
 17 18  1  0
 18 19  1  0
 19 20  1  0
 20 21  1  0
 21 22  1  0
 10  5  1  0
 16 11  1  0
 22 17  1  0
M  END
$$$$
