
     RDKit          3D

 32 35  0  0  0  0  0  0  0  0999 V2000
   -2.5312    3.2274   -5.4642 N   0  0  0  0  0  0  0  0  0  0  0  0
   -2.4033    2.1045   -4.6886 C   0  0  0  0  0  0  0  0  0  0  0  0
   -3.3057    1.8525   -3.8948 O   0  0  0  0  0  0  0  0  0  0  0  0
   -1.1738    1.2570   -4.8589 C   0  0  0  0  0  0  0  0  0  0  0  0
   -0.0513    1.7834   -5.5202 C   0  0  0  0  0  0  0  0  0  0  0  0
    1.0613    0.9809   -5.6997 C   0  0  0  0  0  0  0  0  0  0  0  0
    1.1427   -0.2846   -5.2602 N   0  0  0  0  0  0  0  0  0  0  0  0
    0.0600   -0.7678   -4.6076 C   0  0  0  0  0  0  0  0  0  0  0  0
   -1.1283   -0.0662   -4.3695 C   0  0  0  0  0  0  0  0  0  0  0  0
   -2.1970   -0.6555   -3.6685 N   0  0  0  0  0  0  0  0  0  0  0  0
   -2.0348   -0.6261   -2.2056 C   0  0  0  0  0  0  0  0  0  0  0  0
   -1.7242   -2.0198   -1.6654 C   0  0  0  0  0  0  0  0  0  0  0  0
   -2.8211   -3.0261   -2.0201 C   0  0  0  0  0  0  0  0  0  0  0  0
   -3.6567   -2.5989   -3.2290 C   0  0  0  0  0  0  0  0  0  0  0  0
   -2.8057   -1.8669   -4.2751 C   0  0  0  0  0  0  0  0  0  0  0  0
   -3.6635   -1.4749   -5.5071 C   0  0  0  0  0  0  0  0  0  0  0  0
   -4.6258   -0.4181   -5.1592 N   0  0  0  0  0  0  0  0  0  0  0  0
   -5.6485    0.1561   -6.3588 S   0  0  0  0  0  0  0  0  0  0  0  0
   -5.8445    1.5763   -6.1832 O   0  0  0  0  0  0  0  0  0  0  0  0
   -5.1489   -0.3499   -7.6221 O   0  0  0  0  0  0  0  0  0  0  0  0
   -7.1880   -0.6699   -6.0213 C   0  0  0  0  0  0  0  0  0  0  0  0
   -7.7449   -1.4132   -7.0723 C   0  0  0  0  0  0  0  0  0  0  0  0
   -8.8672   -2.1727   -6.8209 C   0  0  0  0  0  0  0  0  0  0  0  0
   -9.4506   -2.2405   -5.6124 N   0  0  0  0  0  0  0  0  0  0  0  0
   -8.8970   -1.4930   -4.6224 C   0  0  0  0  0  0  0  0  0  0  0  0
   -7.7721   -0.6704   -4.7447 C   0  0  0  0  0  0  0  0  0  0  0  0
   -7.2995    0.0863   -3.6853 N   0  0  0  0  0  0  0  0  0  0  0  0
   -7.0679   -0.5274   -2.3762 C   0  0  0  0  0  0  0  0  0  0  0  0
   -8.1593   -0.1650   -1.3719 C   0  0  0  0  0  0  0  0  0  0  0  0
   -8.3746    1.3429   -1.3200 C   0  0  0  0  0  0  0  0  0  0  0  0
   -8.6980    1.8781   -2.7133 C   0  0  0  0  0  0  0  0  0  0  0  0
   -7.5897    1.5286   -3.7077 C   0  0  0  0  0  0  0  0  0  0  0  0
  1  2  1  0
  2  3  2  0
  2  4  1  0
  4  5  2  0
  5  6  1  0
  6  7  2  0
  7  8  1  0
  8  9  2  0
  9 10  1  0
 10 11  1  0
 11 12  1  0
 12 13  1  0
 13 14  1  0
 14 15  1  0
 15 16  1  0
 16 17  1  0
 17 18  1  0
 18 19  2  0
 18 20  2  0
 18 21  1  0
 21 22  2  0
 22 23  1  0
 23 24  2  0
 24 25  1  0
 25 26  2  0
 26 27  1  0
 27 28  1  0
 28 29  1  0
 29 30  1  0
 30 31  1  0
 31 32  1  0
  9  4  1  0
 15 10  1  0
 26 21  1  0
 32 27  1  0
M  END
$$$$
