
     RDKit          3D

 29 32  0  0  0  0  0  0  0  0999 V2000
   -1.2105    8.5494   -5.9342 N   0  0  0  0  0  0  0  0  0  0  0  0
   -1.5114    8.4669   -7.3653 C   0  0  0  0  0  0  0  0  0  0  0  0
   -1.4966    9.8309   -8.0235 C   0  0  0  0  0  0  0  0  0  0  0  0
   -2.5611   10.7115   -7.7237 C   0  0  0  0  0  0  0  0  0  0  0  0
   -2.6537   11.9642   -8.3236 C   0  0  0  0  0  0  0  0  0  0  0  0
   -1.6772   12.3447   -9.2359 C   0  0  0  0  0  0  0  0  0  0  0  0
   -1.7664   13.9228  -10.0327 S   0  0  0  0  0  0  0  0  0  0  0  0
   -0.5731   14.7865   -9.2180 N   0  0  0  0  0  0  0  0  0  0  0  0
   -3.0134   14.5550   -9.6665 O   0  0  0  0  0  0  0  0  0  0  0  0
   -1.3483   13.7624  -11.4042 O   0  0  0  0  0  0  0  0  0  0  0  0
   -0.6223   11.4849   -9.5573 C   0  0  0  0  0  0  0  0  0  0  0  0
   -0.5027   10.2200   -8.9528 C   0  0  0  0  0  0  0  0  0  0  0  0
    0.5748    9.3852   -9.2652 N   0  0  0  0  0  0  0  0  0  0  0  0
    1.0005    9.3300  -10.6689 C   0  0  0  0  0  0  0  0  0  0  0  0
    1.5829    7.9455  -10.9601 C   0  0  0  0  0  0  0  0  0  0  0  0
    2.4239    7.3942   -9.8082 C   0  0  0  0  0  0  0  0  0  0  0  0
    2.8763    8.5044   -8.8681 C   0  0  0  0  0  0  0  0  0  0  0  0
    1.6713    9.2549   -8.2528 C   0  0  0  0  0  0  0  0  0  0  0  0
    2.1173   10.6103   -7.6365 C   0  0  0  0  0  0  0  0  0  0  0  0
    3.0583   10.4437   -6.5288 N   0  0  0  0  0  0  0  0  0  0  0  0
    4.3727   10.6344   -6.7413 C   0  0  0  0  0  0  0  0  0  0  0  0
    4.9758   11.0725   -7.8196 N   0  0  0  0  0  0  0  0  0  0  0  0
    6.3163   11.0712   -7.5206 C   0  0  0  0  0  0  0  0  0  0  0  0
    7.4138   11.4409   -8.3109 C   0  0  0  0  0  0  0  0  0  0  0  0
    8.6989   11.3457   -7.7614 C   0  0  0  0  0  0  0  0  0  0  0  0
    8.8866   10.8924   -6.4528 C   0  0  0  0  0  0  0  0  0  0  0  0
    7.8032   10.5190   -5.6486 C   0  0  0  0  0  0  0  0  0  0  0  0
    6.5350   10.6233   -6.2230 C   0  0  0  0  0  0  0  0  0  0  0  0
    5.2767   10.3553   -5.7504 N   0  0  0  0  0  0  0  0  0  0  0  0
  1  2  1  0
  2  3  1  0
  3  4  2  0
  4  5  1  0
  5  6  2  0
  6  7  1  0
  7  8  1  0
  7  9  2  0
  7 10  2  0
  6 11  1  0
 11 12  2  0
 12 13  1  0
 13 14  1  0
 14 15  1  0
 15 16  1  0
 16 17  1  0
 17 18  1  0
 18 19  1  0
 19 20  1  0
 20 21  1  0
 21 22  2  0
 22 23  1  0
 23 24  2  0
 24 25  1  0
 25 26  2  0
 26 27  1  0
 27 28  2  0
 28 29  1  0
 12  3  1  0
 18 13  1  0
 29 21  1  0
 28 23  1  0
M  END
$$$$
