
     RDKit          3D

 30 33  0  0  0  0  0  0  0  0999 V2000
  -16.5085    2.0464   21.2618 C   0  0  0  0  0  0  0  0  0  0  0  0
  -17.2450    0.8606   20.8435 N   0  0  0  0  0  0  0  0  0  0  0  0
  -17.6668    0.9860   19.4416 C   0  0  0  0  0  0  0  0  0  0  0  0
  -18.6402   -0.1072   19.0584 C   0  0  0  0  0  0  0  0  0  0  0  0
  -20.0000    0.0678   19.3857 C   0  0  0  0  0  0  0  0  0  0  0  0
  -20.9560   -0.8969   19.0602 C   0  0  0  0  0  0  0  0  0  0  0  0
  -20.5680   -2.0610   18.4082 C   0  0  0  0  0  0  0  0  0  0  0  0
  -21.3910   -3.0882   18.0355 O   0  0  0  0  0  0  0  0  0  0  0  0
  -22.7650   -2.9689   18.3810 C   0  0  0  0  0  0  0  0  0  0  0  0
  -19.2198   -2.2447   18.0851 C   0  0  0  0  0  0  0  0  0  0  0  0
  -18.2378   -1.2826   18.3948 C   0  0  0  0  0  0  0  0  0  0  0  0
  -16.8756   -1.4997   18.0807 N   0  0  0  0  0  0  0  0  0  0  0  0
  -16.6406   -1.7891   16.6601 C   0  0  0  0  0  0  0  0  0  0  0  0
  -15.1476   -1.9558   16.4101 C   0  0  0  0  0  0  0  0  0  0  0  0
  -14.5939   -3.1527   17.1746 C   0  0  0  0  0  0  0  0  0  0  0  0
  -15.4389   -3.5240   18.3941 C   0  0  0  0  0  0  0  0  0  0  0  0
  -16.1938   -2.3561   19.0755 C   0  0  0  0  0  0  0  0  0  0  0  0
  -15.3995   -1.7072   20.1258 N   0  0  0  0  0  0  0  0  0  0  0  0
  -14.2733   -0.9140   19.6306 C   0  0  0  0  0  0  0  0  0  0  0  0
  -13.5017   -0.2439   20.7881 C   0  0  0  0  0  0  0  0  0  0  0  0
  -12.5954    0.7993   20.3120 N   0  0  0  0  0  0  0  0  0  0  0  0
  -11.4844    0.3762   19.5794 C   0  0  0  0  0  0  0  0  0  0  0  0
  -10.8899   -0.8198   19.8325 N   0  0  0  0  0  0  0  0  0  0  0  0
   -9.8098   -1.1804   19.1052 C   0  0  0  0  0  0  0  0  0  0  0  0
   -9.2064   -0.5016   18.1082 N   0  0  0  0  0  0  0  0  0  0  0  0
   -9.8304    0.6643   17.8931 C   0  0  0  0  0  0  0  0  0  0  0  0
   -9.5044    1.6114   16.9668 N   0  0  0  0  0  0  0  0  0  0  0  0
  -10.4098    2.6314   17.0828 C   0  0  0  0  0  0  0  0  0  0  0  0
  -11.2967    2.3976   18.0275 N   0  0  0  0  0  0  0  0  0  0  0  0
  -10.9364    1.1700   18.5524 C   0  0  0  0  0  0  0  0  0  0  0  0
  1  2  1  0
  2  3  1  0
  3  4  1  0
  4  5  2  0
  5  6  1  0
  6  7  2  0
  7  8  1  0
  8  9  1  0
  7 10  1  0
 10 11  2  0
 11 12  1  0
 12 13  1  0
 13 14  1  0
 14 15  1  0
 15 16  1  0
 16 17  1  0
 17 18  1  0
 18 19  1  0
 19 20  1  0
 20 21  1  0
 21 22  1  0
 22 23  2  0
 23 24  1  0
 24 25  2  0
 25 26  1  0
 26 27  1  0
 27 28  1  0
 28 29  2  0
 29 30  1  0
 11  4  1  0
 17 12  1  0
 30 22  1  0
 30 26  2  0
M  END
$$$$
