
     RDKit          3D

 30 33  0  0  0  0  0  0  0  0999 V2000
  -26.6438   -4.1892  -14.9892 N   0  0  0  0  0  0  0  0  0  0  0  0
  -26.2338   -4.1014  -13.6441 C   0  0  0  0  0  0  0  0  0  0  0  0
  -26.2457   -5.2732  -12.8754 C   0  0  0  0  0  0  0  0  0  0  0  0
  -25.9426   -5.2075  -11.5231 C   0  0  0  0  0  0  0  0  0  0  0  0
  -25.6690   -4.0599  -10.8724 N   0  0  0  0  0  0  0  0  0  0  0  0
  -25.7283   -2.9287  -11.6167 C   0  0  0  0  0  0  0  0  0  0  0  0
  -26.0121   -2.8662  -12.9921 C   0  0  0  0  0  0  0  0  0  0  0  0
  -26.0187   -1.5976  -13.6098 N   0  0  0  0  0  0  0  0  0  0  0  0
  -27.3787   -1.2069  -14.0634 C   0  0  0  0  0  0  0  0  0  0  0  0
  -27.3504    0.1881  -14.6625 C   0  0  0  0  0  0  0  0  0  0  0  0
  -28.3051    0.6627  -15.2814 O   0  0  0  0  0  0  0  0  0  0  0  0
  -26.1098    0.9996  -14.3913 C   0  0  0  0  0  0  0  0  0  0  0  0
  -24.8457    0.2258  -14.7590 C   0  0  0  0  0  0  0  0  0  0  0  0
  -24.9344   -1.3142  -14.5803 C   0  0  0  0  0  0  0  0  0  0  0  0
  -23.5472   -1.8682  -14.1503 C   0  0  0  0  0  0  0  0  0  0  0  0
  -22.4919   -1.5878  -15.1120 N   0  0  0  0  0  0  0  0  0  0  0  0
  -22.0821   -2.5356  -16.0268 C   0  0  0  0  0  0  0  0  0  0  0  0
  -22.6423   -3.6093  -16.2182 O   0  0  0  0  0  0  0  0  0  0  0  0
  -20.8797   -2.1510  -16.7918 C   0  0  0  0  0  0  0  0  0  0  0  0
  -21.1554   -1.3559  -17.9177 C   0  0  0  0  0  0  0  0  0  0  0  0
  -20.1030   -0.9483  -18.7023 C   0  0  0  0  0  0  0  0  0  0  0  0
  -18.8297   -1.2688  -18.4302 N   0  0  0  0  0  0  0  0  0  0  0  0
  -18.6090   -2.0517  -17.3385 C   0  0  0  0  0  0  0  0  0  0  0  0
  -19.5717   -2.5580  -16.4530 C   0  0  0  0  0  0  0  0  0  0  0  0
  -19.2004   -3.3466  -15.3714 N   0  0  0  0  0  0  0  0  0  0  0  0
  -19.9943   -3.4297  -14.1371 C   0  0  0  0  0  0  0  0  0  0  0  0
  -19.1601   -3.9539  -12.9593 C   0  0  0  0  0  0  0  0  0  0  0  0
  -17.7554   -3.3585  -12.9819 C   0  0  0  0  0  0  0  0  0  0  0  0
  -17.0307   -3.6763  -14.2954 C   0  0  0  0  0  0  0  0  0  0  0  0
  -17.9816   -4.1637  -15.3891 C   0  0  0  0  0  0  0  0  0  0  0  0
  1  2  1  0
  2  3  2  0
  3  4  1  0
  4  5  2  0
  5  6  1  0
  6  7  2  0
  7  8  1  0
  8  9  1  0
  9 10  1  0
 10 11  2  0
 10 12  1  0
 12 13  1  0
 13 14  1  0
 14 15  1  0
 15 16  1  0
 16 17  1  0
 17 18  2  0
 17 19  1  0
 19 20  2  0
 20 21  1  0
 21 22  2  0
 22 23  1  0
 23 24  2  0
 24 25  1  0
 25 26  1  0
 26 27  1  0
 27 28  1  0
 28 29  1  0
 29 30  1  0
  7  2  1  0
 14  8  1  0
 24 19  1  0
 30 25  1  0
M  END
$$$$
