
     RDKit          3D

 19 20  0  0  0  0  0  0  0  0999 V2000
    1.1450   -0.6204   -3.6946 N   0  0  0  0  0  0  0  0  0  0  0  0
    1.6520   -1.1381   -4.9600 C   0  0  0  0  0  0  0  0  0  0  0  0
    1.6820   -0.0592   -6.0322 C   0  0  0  0  0  0  0  0  0  0  0  0
    0.2900    0.3213   -6.4925 C   0  0  0  0  0  0  0  0  0  0  0  0
   -0.4668   -0.4989   -7.0161 O   0  0  0  0  0  0  0  0  0  0  0  0
   -0.1387    1.7483   -6.3026 C   0  0  0  0  0  0  0  0  0  0  0  0
   -0.5744    2.0554   -4.8969 C   0  0  0  0  0  0  0  0  0  0  0  0
    0.2191    2.5315   -4.0819 O   0  0  0  0  0  0  0  0  0  0  0  0
   -2.0046    1.7395   -4.5202 C   0  0  0  0  0  0  0  0  0  0  0  0
   -2.0966    0.4337   -3.7451 C   0  0  0  0  0  0  0  0  0  0  0  0
   -3.5169    0.0472   -3.4804 C   0  0  0  0  0  0  0  0  0  0  0  0
   -4.2636    0.3671   -2.3637 C   0  0  0  0  0  0  0  0  0  0  0  0
   -5.5138   -0.1692   -2.5153 N   0  0  0  0  0  0  0  0  0  0  0  0
   -5.6056   -0.8342   -3.7155 C   0  0  0  0  0  0  0  0  0  0  0  0
   -6.6825   -1.5232   -4.2864 C   0  0  0  0  0  0  0  0  0  0  0  0
   -6.4833   -2.1135   -5.5380 C   0  0  0  0  0  0  0  0  0  0  0  0
   -5.2561   -2.0174   -6.1896 C   0  0  0  0  0  0  0  0  0  0  0  0
   -4.1899   -1.3246   -5.6047 C   0  0  0  0  0  0  0  0  0  0  0  0
   -4.3651   -0.7197   -4.3429 C   0  0  0  0  0  0  0  0  0  0  0  0
  1  2  1  0
  2  3  1  0
  3  4  1  0
  4  5  2  0
  4  6  1  0
  6  7  1  0
  7  8  2  0
  7  9  1  0
  9 10  1  0
 10 11  1  0
 11 12  2  0
 12 13  1  0
 13 14  1  0
 14 15  2  0
 15 16  1  0
 16 17  2  0
 17 18  1  0
 18 19  2  0
 19 11  1  0
 19 14  1  0
M  END
$$$$
