
     RDKit          3D

 23 25  0  0  0  0  0  0  0  0999 V2000
   -1.0700    4.4492   -9.2303 N   0  0  0  0  0  0  0  0  0  0  0  0
   -0.1684    3.6824   -8.5453 C   0  0  0  0  0  0  0  0  0  0  0  0
    1.0221    3.7036   -8.8194 O   0  0  0  0  0  0  0  0  0  0  0  0
   -0.7280    2.8188   -7.4716 C   0  0  0  0  0  0  0  0  0  0  0  0
   -1.6529    3.3984   -6.5840 C   0  0  0  0  0  0  0  0  0  0  0  0
   -2.2089    2.6466   -5.5481 C   0  0  0  0  0  0  0  0  0  0  0  0
   -1.8416    1.3145   -5.3936 C   0  0  0  0  0  0  0  0  0  0  0  0
   -2.5298    0.3812   -4.1231 Cl  0  0  0  0  0  0  0  0  0  0  0  0
   -0.9200    0.7303   -6.2633 C   0  0  0  0  0  0  0  0  0  0  0  0
   -0.3422    1.4717   -7.3142 C   0  0  0  0  0  0  0  0  0  0  0  0
    0.6394    0.7677   -8.2267 C   0  0  0  0  0  0  0  0  0  0  0  0
    1.9667    0.3953   -7.5567 C   0  0  0  0  0  0  0  0  0  0  0  0
    2.8132    1.6050   -7.1508 C   0  0  0  0  0  0  0  0  0  0  0  0
    4.0466    1.1233   -6.5385 N   0  0  0  0  0  0  0  0  0  0  0  0
    4.9000    2.1367   -6.0794 C   0  0  0  0  0  0  0  0  0  0  0  0
    4.4056    3.2818   -5.5369 N   0  0  0  0  0  0  0  0  0  0  0  0
    5.2692    4.2212   -5.0931 C   0  0  0  0  0  0  0  0  0  0  0  0
    6.6180    4.1946   -5.1068 N   0  0  0  0  0  0  0  0  0  0  0  0
    7.0554    3.0503   -5.6493 C   0  0  0  0  0  0  0  0  0  0  0  0
    8.3534    2.6724   -5.8318 N   0  0  0  0  0  0  0  0  0  0  0  0
    8.3456    1.4390   -6.4253 C   0  0  0  0  0  0  0  0  0  0  0  0
    7.1216    1.0012   -6.6348 N   0  0  0  0  0  0  0  0  0  0  0  0
    6.3012    2.0016   -6.1448 C   0  0  0  0  0  0  0  0  0  0  0  0
  1  2  1  0
  2  3  2  0
  2  4  1  0
  4  5  2  0
  5  6  1  0
  6  7  2  0
  7  8  1  0
  7  9  1  0
  9 10  2  0
 10 11  1  0
 11 12  1  0
 12 13  1  0
 13 14  1  0
 14 15  1  0
 15 16  2  0
 16 17  1  0
 17 18  2  0
 18 19  1  0
 19 20  1  0
 20 21  1  0
 21 22  2  0
 22 23  1  0
 10  4  1  0
 23 15  1  0
 23 19  2  0
M  END
$$$$
