
     RDKit          3D

 16 17  0  0  0  0  0  0  0  0999 V2000
   -3.8255   14.3713  -14.1230 N   0  0  0  0  0  0  0  0  0  0  0  0
   -3.2639   13.2805  -13.3378 C   0  0  0  0  0  0  0  0  0  0  0  0
   -4.3603   12.5928  -12.5273 C   0  0  0  0  0  0  0  0  0  0  0  0
   -3.7778   11.5107  -11.6272 C   0  0  0  0  0  0  0  0  0  0  0  0
   -4.8453   10.6221  -11.0191 C   0  0  0  0  0  0  0  0  0  0  0  0
   -4.8940    9.4225  -11.3061 O   0  0  0  0  0  0  0  0  0  0  0  0
   -5.8210   11.2465  -10.0383 C   0  0  0  0  0  0  0  0  0  0  0  0
   -7.1268   11.5899  -10.6763 C   0  0  0  0  0  0  0  0  0  0  0  0
   -7.9937   10.7039  -11.2884 C   0  0  0  0  0  0  0  0  0  0  0  0
   -9.0786   11.4003  -11.7430 N   0  0  0  0  0  0  0  0  0  0  0  0
   -8.9510   12.7330  -11.4317 C   0  0  0  0  0  0  0  0  0  0  0  0
   -9.8133   13.8044  -11.6945 C   0  0  0  0  0  0  0  0  0  0  0  0
   -9.4254   15.0724  -11.2537 C   0  0  0  0  0  0  0  0  0  0  0  0
   -8.2237   15.2579  -10.5760 C   0  0  0  0  0  0  0  0  0  0  0  0
   -7.3740   14.1751  -10.3204 C   0  0  0  0  0  0  0  0  0  0  0  0
   -7.7386   12.8840  -10.7570 C   0  0  0  0  0  0  0  0  0  0  0  0
  1  2  1  0
  2  3  1  0
  3  4  1  0
  4  5  1  0
  5  6  2  0
  5  7  1  0
  7  8  1  0
  8  9  2  0
  9 10  1  0
 10 11  1  0
 11 12  2  0
 12 13  1  0
 13 14  2  0
 14 15  1  0
 15 16  2  0
 16  8  1  0
 16 11  1  0
M  END
$$$$
