
     RDKit          3D

 16 17  0  0  0  0  0  0  0  0999 V2000
    5.3818   11.8682  -14.0100 N   0  0  0  0  0  0  0  0  0  0  0  0
    5.9434   10.7774  -13.2248 C   0  0  0  0  0  0  0  0  0  0  0  0
    4.8470   10.0898  -12.4144 C   0  0  0  0  0  0  0  0  0  0  0  0
    5.4295    9.0076  -11.5143 C   0  0  0  0  0  0  0  0  0  0  0  0
    4.3620    8.1191  -10.9061 C   0  0  0  0  0  0  0  0  0  0  0  0
    4.3133    6.9195  -11.1932 O   0  0  0  0  0  0  0  0  0  0  0  0
    3.3863    8.7434   -9.9253 C   0  0  0  0  0  0  0  0  0  0  0  0
    2.0805    9.0868  -10.5633 C   0  0  0  0  0  0  0  0  0  0  0  0
    1.2136    8.2009  -11.1754 C   0  0  0  0  0  0  0  0  0  0  0  0
    0.1287    8.8973  -11.6300 N   0  0  0  0  0  0  0  0  0  0  0  0
    0.2562   10.2299  -11.3188 C   0  0  0  0  0  0  0  0  0  0  0  0
   -0.6060   11.3014  -11.5815 C   0  0  0  0  0  0  0  0  0  0  0  0
   -0.2181   12.5693  -11.1407 C   0  0  0  0  0  0  0  0  0  0  0  0
    0.9836   12.7549  -10.4630 C   0  0  0  0  0  0  0  0  0  0  0  0
    1.8333   11.6720  -10.2074 C   0  0  0  0  0  0  0  0  0  0  0  0
    1.4687   10.3809  -10.6440 C   0  0  0  0  0  0  0  0  0  0  0  0
  1  2  1  0
  2  3  1  0
  3  4  1  0
  4  5  1  0
  5  6  2  0
  5  7  1  0
  7  8  1  0
  8  9  2  0
  9 10  1  0
 10 11  1  0
 11 12  2  0
 12 13  1  0
 13 14  2  0
 14 15  1  0
 15 16  2  0
 16  8  1  0
 16 11  1  0
M  END
$$$$
