
     RDKit          3D

 28 31  0  0  0  0  0  0  0  0999 V2000
   -5.3871   -7.7497    6.2641 N   0  0  0  0  0  0  0  0  0  0  0  0
   -5.1444   -6.4102    6.4293 C   0  0  0  0  0  0  0  0  0  0  0  0
   -5.3278   -5.6204    5.5128 O   0  0  0  0  0  0  0  0  0  0  0  0
   -4.6712   -6.0010    7.7787 C   0  0  0  0  0  0  0  0  0  0  0  0
   -5.4143   -6.4341    8.8896 C   0  0  0  0  0  0  0  0  0  0  0  0
   -5.0234   -6.0764   10.1783 C   0  0  0  0  0  0  0  0  0  0  0  0
   -3.8973   -5.2808   10.3614 C   0  0  0  0  0  0  0  0  0  0  0  0
   -3.1569   -4.8445    9.2585 C   0  0  0  0  0  0  0  0  0  0  0  0
   -3.5177   -5.2025    7.9459 C   0  0  0  0  0  0  0  0  0  0  0  0
   -2.7644   -4.7721    6.8328 N   0  0  0  0  0  0  0  0  0  0  0  0
   -3.2266   -3.4090    6.4373 C   0  0  0  0  0  0  0  0  0  0  0  0
   -2.5316   -2.9631    5.1640 C   0  0  0  0  0  0  0  0  0  0  0  0
   -2.6542   -1.8238    4.7129 O   0  0  0  0  0  0  0  0  0  0  0  0
   -1.6902   -4.0056    4.4810 C   0  0  0  0  0  0  0  0  0  0  0  0
   -0.6901   -4.5777    5.4784 C   0  0  0  0  0  0  0  0  0  0  0  0
   -1.2830   -4.9070    6.8784 C   0  0  0  0  0  0  0  0  0  0  0  0
   -0.8298   -6.3379    7.3171 C   0  0  0  0  0  0  0  0  0  0  0  0
    0.6295   -6.5495    7.3728 N   0  0  0  0  0  0  0  0  0  0  0  0
    1.2312   -5.8962    8.5425 C   0  0  0  0  0  0  0  0  0  0  0  0
    2.7173   -5.7916    8.4156 C   0  0  0  0  0  0  0  0  0  0  0  0
    3.4456   -4.7064    8.6082 N   0  0  0  0  0  0  0  0  0  0  0  0
    4.7468   -5.0857    8.3834 C   0  0  0  0  0  0  0  0  0  0  0  0
    5.9254   -4.3270    8.4309 C   0  0  0  0  0  0  0  0  0  0  0  0
    7.1451   -4.9649    8.1632 C   0  0  0  0  0  0  0  0  0  0  0  0
    7.1893   -6.3283    7.8555 C   0  0  0  0  0  0  0  0  0  0  0  0
    6.0221   -7.0995    7.7980 C   0  0  0  0  0  0  0  0  0  0  0  0
    4.8218   -6.4390    8.0698 C   0  0  0  0  0  0  0  0  0  0  0  0
    3.5180   -6.8620    8.0926 N   0  0  0  0  0  0  0  0  0  0  0  0
  1  2  1  0
  2  3  2  0
  2  4  1  0
  4  5  2  0
  5  6  1  0
  6  7  2  0
  7  8  1  0
  8  9  2  0
  9 10  1  0
 10 11  1  0
 11 12  1  0
 12 13  2  0
 12 14  1  0
 14 15  1  0
 15 16  1  0
 16 17  1  0
 17 18  1  0
 18 19  1  0
 19 20  1  0
 20 21  2  0
 21 22  1  0
 22 23  2  0
 23 24  1  0
 24 25  2  0
 25 26  1  0
 26 27  2  0
 27 28  1  0
  9  4  1  0
 16 10  1  0
 28 20  1  0
 27 22  1  0
M  END
$$$$
