
     RDKit          3D

 26 28  0  0  0  0  0  0  0  0999 V2000
   53.1436  -24.5930  -88.5746 C   0  0  0  0  0  0  0  0  0  0  0  0
   53.6906  -23.5888  -89.4494 N   0  0  0  0  0  0  0  0  0  0  0  0
   54.6612  -22.7163  -89.0123 C   0  0  0  0  0  0  0  0  0  0  0  0
   55.1809  -22.7816  -87.9086 O   0  0  0  0  0  0  0  0  0  0  0  0
   55.0586  -21.6879  -90.0502 C   0  0  0  0  0  0  0  0  0  0  0  0
   54.3594  -20.3611  -89.8634 C   0  0  0  0  0  0  0  0  0  0  0  0
   54.9668  -19.4198  -89.0141 C   0  0  0  0  0  0  0  0  0  0  0  0
   54.3846  -18.1736  -88.7820 C   0  0  0  0  0  0  0  0  0  0  0  0
   53.1839  -17.8468  -89.3988 C   0  0  0  0  0  0  0  0  0  0  0  0
   52.5116  -16.6625  -89.2724 O   0  0  0  0  0  0  0  0  0  0  0  0
   53.1294  -15.6599  -88.4750 C   0  0  0  0  0  0  0  0  0  0  0  0
   52.5647  -18.7834  -90.2321 C   0  0  0  0  0  0  0  0  0  0  0  0
   53.1192  -20.0552  -90.4687 C   0  0  0  0  0  0  0  0  0  0  0  0
   52.4998  -21.0010  -91.3348 N   0  0  0  0  0  0  0  0  0  0  0  0
   52.9841  -20.7362  -92.7173 C   0  0  0  0  0  0  0  0  0  0  0  0
   52.4683  -21.7661  -93.7156 C   0  0  0  0  0  0  0  0  0  0  0  0
   53.0215  -21.9210  -94.8204 O   0  0  0  0  0  0  0  0  0  0  0  0
   51.1409  -22.4478  -93.4388 C   0  0  0  0  0  0  0  0  0  0  0  0
   50.6712  -22.4111  -91.9864 C   0  0  0  0  0  0  0  0  0  0  0  0
   51.0111  -21.0685  -91.2954 C   0  0  0  0  0  0  0  0  0  0  0  0
   50.2660  -20.8977  -90.0475 N   0  0  0  0  0  0  0  0  0  0  0  0
   48.8683  -20.5211  -90.1951 C   0  0  0  0  0  0  0  0  0  0  0  0
   48.3311  -20.0161  -88.8572 C   0  0  0  0  0  0  0  0  0  0  0  0
   48.5015  -21.0323  -87.7278 C   0  0  0  0  0  0  0  0  0  0  0  0
   49.3368  -22.2359  -88.1479 C   0  0  0  0  0  0  0  0  0  0  0  0
   50.5651  -21.8321  -88.9668 C   0  0  0  0  0  0  0  0  0  0  0  0
  1  2  1  0
  2  3  1  0
  3  4  2  0
  3  5  1  0
  5  6  1  0
  6  7  2  0
  7  8  1  0
  8  9  2  0
  9 10  1  0
 10 11  1  0
  9 12  1  0
 12 13  2  0
 13 14  1  0
 14 15  1  0
 15 16  1  0
 16 17  2  0
 16 18  1  0
 18 19  1  0
 19 20  1  0
 20 21  1  0
 21 22  1  0
 22 23  1  0
 23 24  1  0
 24 25  1  0
 25 26  1  0
 13  6  1  0
 20 14  1  0
 26 21  1  0
M  END
$$$$
