
     RDKit          3D

 18 19  0  0  0  0  0  0  0  0999 V2000
  -48.5037  -10.4133   43.5957 C   0  0  0  0  0  0  0  0  0  0  0  0
  -48.1856  -11.4843   44.4743 O   0  0  0  0  0  0  0  0  0  0  0  0
  -47.7892  -12.6930   43.8076 C   0  0  0  0  0  0  0  0  0  0  0  0
  -47.1066  -13.5627   44.8780 C   0  0  0  0  0  0  0  0  0  0  0  0
  -46.5221  -14.8903   44.3918 C   0  0  0  0  0  0  0  0  0  0  0  0
  -45.4975  -14.7482   43.3115 C   0  0  0  0  0  0  0  0  0  0  0  0
  -45.6609  -15.0789   41.9797 C   0  0  0  0  0  0  0  0  0  0  0  0
  -44.4935  -14.8024   41.3203 N   0  0  0  0  0  0  0  0  0  0  0  0
  -43.5600  -14.3000   42.1951 C   0  0  0  0  0  0  0  0  0  0  0  0
  -42.2419  -13.8863   41.9669 C   0  0  0  0  0  0  0  0  0  0  0  0
  -41.5120  -13.4145   43.0614 C   0  0  0  0  0  0  0  0  0  0  0  0
  -42.0795  -13.3609   44.3318 C   0  0  0  0  0  0  0  0  0  0  0  0
  -43.3986  -13.7794   44.5418 C   0  0  0  0  0  0  0  0  0  0  0  0
  -44.1586  -14.2578   43.4544 C   0  0  0  0  0  0  0  0  0  0  0  0
  -48.9581  -13.3667   43.0773 C   0  0  0  0  0  0  0  0  0  0  0  0
  -50.1933  -13.5647   43.9258 C   0  0  0  0  0  0  0  0  0  0  0  0
  -50.2037  -14.6665   44.7273 N   0  0  0  0  0  0  0  0  0  0  0  0
  -51.1589  -12.8088   43.8955 O   0  0  0  0  0  0  0  0  0  0  0  0
  1  2  1  0
  2  3  1  0
  3  4  1  0
  4  5  1  0
  5  6  1  0
  6  7  2  0
  7  8  1  0
  8  9  1  0
  9 10  2  0
 10 11  1  0
 11 12  2  0
 12 13  1  0
 13 14  2  0
  3 15  1  0
 15 16  1  0
 16 17  1  0
 16 18  2  0
 14  6  1  0
 14  9  1  0
M  END
$$$$
