
     RDKit          3D

 26 29  0  0  0  0  0  0  0  0999 V2000
  -17.5654    3.8883    4.2800 N   0  0  0  0  0  0  0  0  0  0  0  0
  -18.4890    3.2563    5.1564 C   0  0  0  0  0  0  0  0  0  0  0  0
  -18.5116    1.8627    5.2252 C   0  0  0  0  0  0  0  0  0  0  0  0
  -19.3308    1.2605    6.1642 C   0  0  0  0  0  0  0  0  0  0  0  0
  -20.0849    1.9436    7.0461 N   0  0  0  0  0  0  0  0  0  0  0  0
  -20.0062    3.2958    6.9970 C   0  0  0  0  0  0  0  0  0  0  0  0
  -19.2220    4.0222    6.0937 C   0  0  0  0  0  0  0  0  0  0  0  0
  -19.1105    5.4261    6.1089 N   0  0  0  0  0  0  0  0  0  0  0  0
  -20.3480    6.1901    6.3700 C   0  0  0  0  0  0  0  0  0  0  0  0
  -20.2635    7.0592    7.6120 C   0  0  0  0  0  0  0  0  0  0  0  0
  -21.1980    7.1434    8.4108 O   0  0  0  0  0  0  0  0  0  0  0  0
  -19.0232    7.9078    7.7692 C   0  0  0  0  0  0  0  0  0  0  0  0
  -17.9286    7.4619    6.8038 C   0  0  0  0  0  0  0  0  0  0  0  0
  -17.8590    5.9315    6.7127 C   0  0  0  0  0  0  0  0  0  0  0  0
  -17.6799    5.4458    8.0397 O   0  0  0  0  0  0  0  0  0  0  0  0
  -16.6907    4.4307    8.1370 C   0  0  0  0  0  0  0  0  0  0  0  0
  -15.3882    4.9624    7.7939 N   0  0  0  0  0  0  0  0  0  0  0  0
  -14.5445    4.1934    7.0734 C   0  0  0  0  0  0  0  0  0  0  0  0
  -13.2899    3.9457    7.3534 N   0  0  0  0  0  0  0  0  0  0  0  0
  -12.8353    3.1537    6.3269 C   0  0  0  0  0  0  0  0  0  0  0  0
  -11.5691    2.5844    6.1277 C   0  0  0  0  0  0  0  0  0  0  0  0
  -11.3545    1.8138    4.9774 C   0  0  0  0  0  0  0  0  0  0  0  0
  -12.3777    1.6172    4.0447 C   0  0  0  0  0  0  0  0  0  0  0  0
  -13.6482    2.1749    4.2287 C   0  0  0  0  0  0  0  0  0  0  0  0
  -13.8354    2.9343    5.3858 C   0  0  0  0  0  0  0  0  0  0  0  0
  -14.9156    3.6179    5.8832 N   0  0  0  0  0  0  0  0  0  0  0  0
  1  2  1  0
  2  3  2  0
  3  4  1  0
  4  5  2  0
  5  6  1  0
  6  7  2  0
  7  8  1  0
  8  9  1  0
  9 10  1  0
 10 11  2  0
 10 12  1  0
 12 13  1  0
 13 14  1  0
 14 15  1  0
 15 16  1  0
 16 17  1  0
 17 18  1  0
 18 19  2  0
 19 20  1  0
 20 21  2  0
 21 22  1  0
 22 23  2  0
 23 24  1  0
 24 25  2  0
 25 26  1  0
  7  2  1  0
 14  8  1  0
 26 18  1  0
 25 20  1  0
M  END
$$$$
