
     RDKit          3D

 19 20  0  0  0  0  0  0  0  0999 V2000
    4.9940   28.8998  -22.9368 N   0  0  0  0  0  0  0  0  0  0  0  0
    5.5010   28.3822  -24.2022 C   0  0  0  0  0  0  0  0  0  0  0  0
    5.5311   29.4611  -25.2744 C   0  0  0  0  0  0  0  0  0  0  0  0
    4.1390   29.8416  -25.7346 C   0  0  0  0  0  0  0  0  0  0  0  0
    3.3822   29.0214  -26.2583 O   0  0  0  0  0  0  0  0  0  0  0  0
    3.7103   31.2686  -25.5448 C   0  0  0  0  0  0  0  0  0  0  0  0
    3.2746   31.5757  -24.1391 C   0  0  0  0  0  0  0  0  0  0  0  0
    4.0681   32.0517  -23.3241 O   0  0  0  0  0  0  0  0  0  0  0  0
    1.8444   31.2598  -23.7624 C   0  0  0  0  0  0  0  0  0  0  0  0
    1.7524   29.9539  -22.9873 C   0  0  0  0  0  0  0  0  0  0  0  0
    0.3321   29.5675  -22.7226 C   0  0  0  0  0  0  0  0  0  0  0  0
   -0.4145   29.8874  -21.6058 C   0  0  0  0  0  0  0  0  0  0  0  0
   -1.6648   29.3511  -21.7575 N   0  0  0  0  0  0  0  0  0  0  0  0
   -1.7566   28.6860  -22.9577 C   0  0  0  0  0  0  0  0  0  0  0  0
   -2.8335   27.9971  -23.5286 C   0  0  0  0  0  0  0  0  0  0  0  0
   -2.6343   27.4068  -24.7802 C   0  0  0  0  0  0  0  0  0  0  0  0
   -1.4071   27.5029  -25.4318 C   0  0  0  0  0  0  0  0  0  0  0  0
   -0.3409   28.1956  -24.8469 C   0  0  0  0  0  0  0  0  0  0  0  0
   -0.5160   28.8006  -23.5851 C   0  0  0  0  0  0  0  0  0  0  0  0
  1  2  1  0
  2  3  1  0
  3  4  1  0
  4  5  2  0
  4  6  1  0
  6  7  1  0
  7  8  2  0
  7  9  1  0
  9 10  1  0
 10 11  1  0
 11 12  2  0
 12 13  1  0
 13 14  1  0
 14 15  2  0
 15 16  1  0
 16 17  2  0
 17 18  1  0
 18 19  2  0
 19 11  1  0
 19 14  1  0
M  END
$$$$
