
     RDKit          3D

 16 17  0  0  0  0  0  0  0  0999 V2000
  -16.1730   -0.4090   24.8288 C   0  0  0  0  0  0  0  0  0  0  0  0
  -17.5807   -0.6066   24.8482 O   0  0  0  0  0  0  0  0  0  0  0  0
  -18.3110    0.2380   25.6379 C   0  0  0  0  0  0  0  0  0  0  0  0
  -17.8079    1.2632   26.4251 C   0  0  0  0  0  0  0  0  0  0  0  0
  -18.6821    2.0523   27.1779 C   0  0  0  0  0  0  0  0  0  0  0  0
  -20.0804    1.8517   27.1566 C   0  0  0  0  0  0  0  0  0  0  0  0
  -20.9535    2.7560   27.9979 C   0  0  0  0  0  0  0  0  0  0  0  0
  -20.4595    4.1344   28.0866 N   0  0  0  0  0  0  0  0  0  0  0  0
  -20.5911    0.7811   26.3937 C   0  0  0  0  0  0  0  0  0  0  0  0
  -21.9346    0.3958   26.3098 N   0  0  0  0  0  0  0  0  0  0  0  0
  -22.6050    0.0153   27.5539 C   0  0  0  0  0  0  0  0  0  0  0  0
  -23.8449   -0.8137   27.2156 C   0  0  0  0  0  0  0  0  0  0  0  0
  -24.7567   -0.0682   26.2412 C   0  0  0  0  0  0  0  0  0  0  0  0
  -23.9873    0.3563   24.9905 C   0  0  0  0  0  0  0  0  0  0  0  0
  -22.7349    1.1583   25.3480 C   0  0  0  0  0  0  0  0  0  0  0  0
  -19.6882    0.0081   25.6329 C   0  0  0  0  0  0  0  0  0  0  0  0
  1  2  1  0
  2  3  1  0
  3  4  2  0
  4  5  1  0
  5  6  2  0
  6  7  1  0
  7  8  1  0
  6  9  1  0
  9 10  1  0
 10 11  1  0
 11 12  1  0
 12 13  1  0
 13 14  1  0
 14 15  1  0
  9 16  2  0
 16  3  1  0
 15 10  1  0
M  END
$$$$
