
     RDKit          3D

 27 29  0  0  0  0  0  0  0  0999 V2000
  -24.3423   28.9928   43.3376 N   0  0  0  0  0  0  0  0  0  0  0  0
  -24.0084   29.9612   42.3559 C   0  0  0  0  0  0  0  0  0  0  0  0
  -23.9248   31.3025   42.7494 C   0  0  0  0  0  0  0  0  0  0  0  0
  -23.7666   32.2806   41.7814 C   0  0  0  0  0  0  0  0  0  0  0  0
  -23.7266   32.0247   40.4626 N   0  0  0  0  0  0  0  0  0  0  0  0
  -23.8638   30.7254   40.1007 C   0  0  0  0  0  0  0  0  0  0  0  0
  -23.9926   29.6429   40.9816 C   0  0  0  0  0  0  0  0  0  0  0  0
  -24.0997   28.3478   40.4488 N   0  0  0  0  0  0  0  0  0  0  0  0
  -23.0477   27.3294   40.6873 C   0  0  0  0  0  0  0  0  0  0  0  0
  -21.6725   27.8672   41.1214 C   0  0  0  0  0  0  0  0  0  0  0  0
  -20.9238   28.5428   39.9729 C   0  0  0  0  0  0  0  0  0  0  0  0
  -19.7017   29.1627   40.4532 N   0  0  0  0  0  0  0  0  0  0  0  0
  -18.4815   28.9388   39.8471 C   0  0  0  0  0  0  0  0  0  0  0  0
  -18.2997   28.1396   38.9357 O   0  0  0  0  0  0  0  0  0  0  0  0
  -17.3450   29.7580   40.3504 C   0  0  0  0  0  0  0  0  0  0  0  0
  -16.3161   30.0924   39.4585 C   0  0  0  0  0  0  0  0  0  0  0  0
  -15.2292   30.8556   39.8941 C   0  0  0  0  0  0  0  0  0  0  0  0
  -15.1670   31.2740   41.2234 C   0  0  0  0  0  0  0  0  0  0  0  0
  -13.8309   32.2143   41.7606 Cl  0  0  0  0  0  0  0  0  0  0  0  0
  -16.1792   30.9332   42.1223 C   0  0  0  0  0  0  0  0  0  0  0  0
  -17.2695   30.1723   41.6882 C   0  0  0  0  0  0  0  0  0  0  0  0
  -23.5566   26.2460   41.6503 C   0  0  0  0  0  0  0  0  0  0  0  0
  -24.7338   25.4889   41.0487 C   0  0  0  0  0  0  0  0  0  0  0  0
  -25.6136   26.3769   40.2023 C   0  0  0  0  0  0  0  0  0  0  0  0
  -26.4524   25.8979   39.4323 O   0  0  0  0  0  0  0  0  0  0  0  0
  -25.4946   27.8964   40.4000 C   0  0  0  0  0  0  0  0  0  0  0  0
  -26.1503   28.5631   39.3291 O   0  0  0  0  0  0  0  0  0  0  0  0
  1  2  1  0
  2  3  2  0
  3  4  1  0
  4  5  2  0
  5  6  1  0
  6  7  2  0
  7  8  1  0
  8  9  1  0
  9 10  1  0
 10 11  1  0
 11 12  1  0
 12 13  1  0
 13 14  2  0
 13 15  1  0
 15 16  2  0
 16 17  1  0
 17 18  2  0
 18 19  1  0
 18 20  1  0
 20 21  2  0
  9 22  1  0
 22 23  1  0
 23 24  1  0
 24 25  2  0
 24 26  1  0
 26 27  1  0
  7  2  1  0
 26  8  1  0
 21 15  1  0
M  END
$$$$
