
     RDKit          3D

 23 25  0  0  0  0  0  0  0  0999 V2000
   20.1362    5.8434  -25.4356 N   0  0  0  0  0  0  0  0  0  0  0  0
   19.5855    7.0601  -26.0231 C   0  0  0  0  0  0  0  0  0  0  0  0
   20.4946    7.6599  -27.0970 C   0  0  0  0  0  0  0  0  0  0  0  0
   20.5886    6.7991  -28.3620 C   0  0  0  0  0  0  0  0  0  0  0  0
   21.5355    7.3944  -29.3855 C   0  0  0  0  0  0  0  0  0  0  0  0
   21.1126    8.5270  -30.1012 C   0  0  0  0  0  0  0  0  0  0  0  0
   21.9819    9.1273  -30.9955 C   0  0  0  0  0  0  0  0  0  0  0  0
   23.2319    8.6895  -31.2264 N   0  0  0  0  0  0  0  0  0  0  0  0
   23.6237    7.5982  -30.5223 C   0  0  0  0  0  0  0  0  0  0  0  0
   22.8360    6.8907  -29.6026 C   0  0  0  0  0  0  0  0  0  0  0  0
   23.2684    5.7202  -28.9485 N   0  0  0  0  0  0  0  0  0  0  0  0
   22.8051    4.5056  -29.6464 C   0  0  0  0  0  0  0  0  0  0  0  0
   22.8180    3.3456  -28.6620 C   0  0  0  0  0  0  0  0  0  0  0  0
   22.1289    2.3378  -28.8224 O   0  0  0  0  0  0  0  0  0  0  0  0
   23.7393    3.4933  -27.4732 C   0  0  0  0  0  0  0  0  0  0  0  0
   24.9829    4.2576  -27.9107 C   0  0  0  0  0  0  0  0  0  0  0  0
   24.6726    5.6832  -28.4712 C   0  0  0  0  0  0  0  0  0  0  0  0
   25.1029    6.7421  -27.5535 N   0  0  0  0  0  0  0  0  0  0  0  0
   24.4594    6.7295  -26.2473 C   0  0  0  0  0  0  0  0  0  0  0  0
   24.6163    8.0979  -25.5744 C   0  0  0  0  0  0  0  0  0  0  0  0
   25.9946    8.7281  -25.7925 C   0  0  0  0  0  0  0  0  0  0  0  0
   27.0154    7.6902  -26.2378 C   0  0  0  0  0  0  0  0  0  0  0  0
   26.5498    6.9552  -27.5018 C   0  0  0  0  0  0  0  0  0  0  0  0
  1  2  1  0
  2  3  1  0
  3  4  1  0
  4  5  1  0
  5  6  2  0
  6  7  1  0
  7  8  2  0
  8  9  1  0
  9 10  2  0
 10 11  1  0
 11 12  1  0
 12 13  1  0
 13 14  2  0
 13 15  1  0
 15 16  1  0
 16 17  1  0
 17 18  1  0
 18 19  1  0
 19 20  1  0
 20 21  1  0
 21 22  1  0
 22 23  1  0
 10  5  1  0
 17 11  1  0
 23 18  1  0
M  END
$$$$
