
     RDKit          3D

 19 20  0  0  0  0  0  0  0  0999 V2000
   53.7588   -3.3961  -60.3344 N   0  0  0  0  0  0  0  0  0  0  0  0
   53.1195   -2.0813  -60.3460 C   0  0  0  0  0  0  0  0  0  0  0  0
   52.4695   -1.7343  -59.0139 C   0  0  0  0  0  0  0  0  0  0  0  0
   51.1403   -2.4356  -58.8210 C   0  0  0  0  0  0  0  0  0  0  0  0
   50.9824   -3.2525  -57.9105 O   0  0  0  0  0  0  0  0  0  0  0  0
   50.0271   -2.1064  -59.8012 C   0  0  0  0  0  0  0  0  0  0  0  0
   48.6496   -2.3009  -59.1819 C   0  0  0  0  0  0  0  0  0  0  0  0
   48.3799   -1.3045  -58.0679 C   0  0  0  0  0  0  0  0  0  0  0  0
   49.1134   -0.3312  -57.8799 O   0  0  0  0  0  0  0  0  0  0  0  0
   47.1460   -1.5493  -57.2195 C   0  0  0  0  0  0  0  0  0  0  0  0
   45.8957   -1.2657  -57.9811 C   0  0  0  0  0  0  0  0  0  0  0  0
   45.3562   -0.0186  -58.2228 C   0  0  0  0  0  0  0  0  0  0  0  0
   44.2166   -0.1778  -58.9623 N   0  0  0  0  0  0  0  0  0  0  0  0
   44.0031   -1.5062  -59.2255 C   0  0  0  0  0  0  0  0  0  0  0  0
   42.9779   -2.1248  -59.9507 C   0  0  0  0  0  0  0  0  0  0  0  0
   43.0124   -3.5204  -60.0657 C   0  0  0  0  0  0  0  0  0  0  0  0
   44.0325   -4.2608  -59.4767 C   0  0  0  0  0  0  0  0  0  0  0  0
   45.0471   -3.6262  -58.7497 C   0  0  0  0  0  0  0  0  0  0  0  0
   45.0367   -2.2188  -58.6195 C   0  0  0  0  0  0  0  0  0  0  0  0
  1  2  1  0
  2  3  1  0
  3  4  1  0
  4  5  2  0
  4  6  1  0
  6  7  1  0
  7  8  1  0
  8  9  2  0
  8 10  1  0
 10 11  1  0
 11 12  2  0
 12 13  1  0
 13 14  1  0
 14 15  2  0
 15 16  1  0
 16 17  2  0
 17 18  1  0
 18 19  2  0
 19 11  1  0
 19 14  1  0
M  END
$$$$
