
     RDKit          3D

 26 29  0  0  0  0  0  0  0  0999 V2000
  -27.7623   -2.4108    9.2039 N   0  0  0  0  0  0  0  0  0  0  0  0
  -27.7074   -2.6037   10.6056 C   0  0  0  0  0  0  0  0  0  0  0  0
  -27.6979   -1.4930   11.4493 C   0  0  0  0  0  0  0  0  0  0  0  0
  -27.5515   -1.7004   12.8111 C   0  0  0  0  0  0  0  0  0  0  0  0
  -27.3670   -2.9142   13.3714 N   0  0  0  0  0  0  0  0  0  0  0  0
  -27.3143   -3.9714   12.5228 C   0  0  0  0  0  0  0  0  0  0  0  0
  -27.4659   -3.8934   11.1356 C   0  0  0  0  0  0  0  0  0  0  0  0
  -27.3571   -5.0012   10.2543 N   0  0  0  0  0  0  0  0  0  0  0  0
  -27.9374   -6.2551   10.7811 C   0  0  0  0  0  0  0  0  0  0  0  0
  -27.8528   -7.3699    9.7433 C   0  0  0  0  0  0  0  0  0  0  0  0
  -28.7413   -8.2142    9.6025 O   0  0  0  0  0  0  0  0  0  0  0  0
  -26.5400   -7.5063    9.0124 C   0  0  0  0  0  0  0  0  0  0  0  0
  -26.0734   -6.1355    8.5424 C   0  0  0  0  0  0  0  0  0  0  0  0
  -25.9870   -5.1206    9.7138 C   0  0  0  0  0  0  0  0  0  0  0  0
  -24.9016   -5.5250   10.6124 N   0  0  0  0  0  0  0  0  0  0  0  0
  -23.9796   -4.4274   10.8659 C   0  0  0  0  0  0  0  0  0  0  0  0
  -22.8166   -4.7833   11.6602 N   0  0  0  0  0  0  0  0  0  0  0  0
  -21.7720   -3.9271   11.6934 C   0  0  0  0  0  0  0  0  0  0  0  0
  -21.2541   -3.3514   12.7487 N   0  0  0  0  0  0  0  0  0  0  0  0
  -20.1851   -2.6223   12.2820 C   0  0  0  0  0  0  0  0  0  0  0  0
  -19.2833   -1.8030   12.9743 C   0  0  0  0  0  0  0  0  0  0  0  0
  -18.2673   -1.1630   12.2550 C   0  0  0  0  0  0  0  0  0  0  0  0
  -18.1511   -1.3348   10.8729 C   0  0  0  0  0  0  0  0  0  0  0  0
  -19.0374   -2.1518   10.1604 C   0  0  0  0  0  0  0  0  0  0  0  0
  -20.0422   -2.7733   10.9038 C   0  0  0  0  0  0  0  0  0  0  0  0
  -21.0599   -3.6237   10.5608 N   0  0  0  0  0  0  0  0  0  0  0  0
  1  2  1  0
  2  3  2  0
  3  4  1  0
  4  5  2  0
  5  6  1  0
  6  7  2  0
  7  8  1  0
  8  9  1  0
  9 10  1  0
 10 11  2  0
 10 12  1  0
 12 13  1  0
 13 14  1  0
 14 15  1  0
 15 16  1  0
 16 17  1  0
 17 18  1  0
 18 19  2  0
 19 20  1  0
 20 21  2  0
 21 22  1  0
 22 23  2  0
 23 24  1  0
 24 25  2  0
 25 26  1  0
  7  2  1  0
 14  8  1  0
 26 18  1  0
 25 20  1  0
M  END
$$$$
