
     RDKit          3D

 27 30  0  0  0  0  0  0  0  0999 V2000
  -29.5577    0.2383   -2.0557 N   0  0  0  0  0  0  0  0  0  0  0  0
  -28.5565   -1.1192   -1.9936 S   0  0  0  0  0  0  0  0  0  0  0  0
  -27.7918   -1.0691   -3.2179 O   0  0  0  0  0  0  0  0  0  0  0  0
  -29.4649   -2.1974   -1.6772 O   0  0  0  0  0  0  0  0  0  0  0  0
  -27.4747   -0.8304   -0.6292 C   0  0  0  0  0  0  0  0  0  0  0  0
  -27.4057    0.4776   -0.1219 C   0  0  0  0  0  0  0  0  0  0  0  0
  -26.7014    0.7029    1.0435 C   0  0  0  0  0  0  0  0  0  0  0  0
  -26.0886   -0.2725    1.7318 N   0  0  0  0  0  0  0  0  0  0  0  0
  -26.1609   -1.5170    1.2023 C   0  0  0  0  0  0  0  0  0  0  0  0
  -26.8034   -1.8820    0.0077 C   0  0  0  0  0  0  0  0  0  0  0  0
  -26.6889   -3.1991   -0.4171 N   0  0  0  0  0  0  0  0  0  0  0  0
  -27.3442   -4.2098    0.4288 C   0  0  0  0  0  0  0  0  0  0  0  0
  -28.0774   -5.2414   -0.4210 C   0  0  0  0  0  0  0  0  0  0  0  0
  -27.1481   -5.9505   -1.4019 C   0  0  0  0  0  0  0  0  0  0  0  0
  -25.9408   -5.1016   -1.7967 C   0  0  0  0  0  0  0  0  0  0  0  0
  -26.2659   -3.5942   -1.7928 C   0  0  0  0  0  0  0  0  0  0  0  0
  -25.0268   -2.7979   -2.2964 C   0  0  0  0  0  0  0  0  0  0  0  0
  -23.9238   -2.8721   -1.3326 N   0  0  0  0  0  0  0  0  0  0  0  0
  -22.7980   -2.1968   -1.6334 C   0  0  0  0  0  0  0  0  0  0  0  0
  -22.3971   -1.7377   -2.7947 N   0  0  0  0  0  0  0  0  0  0  0  0
  -21.1946   -1.1204   -2.5513 C   0  0  0  0  0  0  0  0  0  0  0  0
  -20.3308   -0.4559   -3.4338 C   0  0  0  0  0  0  0  0  0  0  0  0
  -19.1487    0.0992   -2.9268 C   0  0  0  0  0  0  0  0  0  0  0  0
  -18.8336   -0.0050   -1.5693 C   0  0  0  0  0  0  0  0  0  0  0  0
  -19.6824   -0.6661   -0.6730 C   0  0  0  0  0  0  0  0  0  0  0  0
  -20.8526   -1.2091   -1.2067 C   0  0  0  0  0  0  0  0  0  0  0  0
  -21.8915   -1.9070   -0.6483 N   0  0  0  0  0  0  0  0  0  0  0  0
  1  2  1  0
  2  3  2  0
  2  4  2  0
  2  5  1  0
  5  6  2  0
  6  7  1  0
  7  8  2  0
  8  9  1  0
  9 10  2  0
 10 11  1  0
 11 12  1  0
 12 13  1  0
 13 14  1  0
 14 15  1  0
 15 16  1  0
 16 17  1  0
 17 18  1  0
 18 19  1  0
 19 20  2  0
 20 21  1  0
 21 22  2  0
 22 23  1  0
 23 24  2  0
 24 25  1  0
 25 26  2  0
 26 27  1  0
 10  5  1  0
 16 11  1  0
 27 19  1  0
 26 21  1  0
M  END
$$$$
