
     RDKit          3D

 24 26  0  0  0  0  0  0  0  0999 V2000
  -28.8513    8.3509  -39.1466 N   0  0  0  0  0  0  0  0  0  0  0  0
  -27.4965    7.9170  -39.4936 C   0  0  0  0  0  0  0  0  0  0  0  0
  -27.4420    6.5700  -40.2418 C   0  0  0  0  0  0  0  0  0  0  0  0
  -26.1712    6.4285  -40.8942 O   0  0  0  0  0  0  0  0  0  0  0  0
  -27.7705    5.3001  -39.4283 C   0  0  0  0  0  0  0  0  0  0  0  0
  -27.5066    5.2995  -37.9311 C   0  0  0  0  0  0  0  0  0  0  0  0
  -28.6033    5.5091  -37.0656 C   0  0  0  0  0  0  0  0  0  0  0  0
  -28.4526    5.4757  -35.6799 C   0  0  0  0  0  0  0  0  0  0  0  0
  -27.2036    5.2041  -35.1472 C   0  0  0  0  0  0  0  0  0  0  0  0
  -27.0048    5.1335  -33.7992 O   0  0  0  0  0  0  0  0  0  0  0  0
  -26.1143    4.9730  -35.9791 C   0  0  0  0  0  0  0  0  0  0  0  0
  -26.2345    5.0353  -37.3785 C   0  0  0  0  0  0  0  0  0  0  0  0
  -25.1458    4.7353  -38.1981 N   0  0  0  0  0  0  0  0  0  0  0  0
  -24.7741    3.3214  -38.1875 C   0  0  0  0  0  0  0  0  0  0  0  0
  -23.9156    3.0246  -39.4090 C   0  0  0  0  0  0  0  0  0  0  0  0
  -22.6528    3.8812  -39.4379 C   0  0  0  0  0  0  0  0  0  0  0  0
  -22.6945    5.0459  -38.4457 C   0  0  0  0  0  0  0  0  0  0  0  0
  -24.0776    5.7510  -38.4039 C   0  0  0  0  0  0  0  0  0  0  0  0
  -24.0559    7.0002  -37.6196 N   0  0  0  0  0  0  0  0  0  0  0  0
  -23.3752    7.0082  -36.3308 C   0  0  0  0  0  0  0  0  0  0  0  0
  -21.9297    7.5176  -36.3621 C   0  0  0  0  0  0  0  0  0  0  0  0
  -21.7979    8.8216  -37.1387 C   0  0  0  0  0  0  0  0  0  0  0  0
  -22.4510    8.6997  -38.5102 C   0  0  0  0  0  0  0  0  0  0  0  0
  -23.8989    8.2335  -38.3815 C   0  0  0  0  0  0  0  0  0  0  0  0
  1  2  1  0
  2  3  1  0
  3  4  1  0
  3  5  1  0
  5  6  1  0
  6  7  2  0
  7  8  1  0
  8  9  2  0
  9 10  1  0
  9 11  1  0
 11 12  2  0
 12 13  1  0
 13 14  1  0
 14 15  1  0
 15 16  1  0
 16 17  1  0
 17 18  1  0
 18 19  1  0
 19 20  1  0
 20 21  1  0
 21 22  1  0
 22 23  1  0
 23 24  1  0
 12  6  1  0
 18 13  1  0
 24 19  1  0
M  END
$$$$
