
     RDKit          3D

 32 35  0  0  0  0  0  0  0  0999 V2000
  -17.0789   21.4204   15.3707 C   0  0  0  0  0  0  0  0  0  0  0  0
  -15.7850   22.0497   15.3111 N   0  0  0  0  0  0  0  0  0  0  0  0
  -15.1975   22.3435   14.0963 C   0  0  0  0  0  0  0  0  0  0  0  0
  -15.6384   21.9641   13.0135 O   0  0  0  0  0  0  0  0  0  0  0  0
  -13.9314   23.1688   14.2237 C   0  0  0  0  0  0  0  0  0  0  0  0
  -14.2198   24.6381   14.4459 C   0  0  0  0  0  0  0  0  0  0  0  0
  -14.2580   25.4753   13.3169 C   0  0  0  0  0  0  0  0  0  0  0  0
  -14.5379   26.8330   13.4462 C   0  0  0  0  0  0  0  0  0  0  0  0
  -14.7873   27.3829   14.6996 C   0  0  0  0  0  0  0  0  0  0  0  0
  -15.0231   28.7312   14.6928 O   0  0  0  0  0  0  0  0  0  0  0  0
  -15.2421   29.3529   15.9541 C   0  0  0  0  0  0  0  0  0  0  0  0
  -14.7707   26.5539   15.8257 C   0  0  0  0  0  0  0  0  0  0  0  0
  -14.4988   25.1738   15.7267 C   0  0  0  0  0  0  0  0  0  0  0  0
  -14.4460   24.3358   16.8666 N   0  0  0  0  0  0  0  0  0  0  0  0
  -15.4765   24.5610   17.9011 C   0  0  0  0  0  0  0  0  0  0  0  0
  -15.2207   23.7008   19.1473 C   0  0  0  0  0  0  0  0  0  0  0  0
  -14.2953   22.5239   18.8773 C   0  0  0  0  0  0  0  0  0  0  0  0
  -12.9672   22.9643   18.2532 C   0  0  0  0  0  0  0  0  0  0  0  0
  -13.0789   24.2481   17.4111 C   0  0  0  0  0  0  0  0  0  0  0  0
  -12.8125   25.3886   18.2349 O   0  0  0  0  0  0  0  0  0  0  0  0
  -11.4523   25.8287   18.1296 C   0  0  0  0  0  0  0  0  0  0  0  0
  -11.2445   26.7206   16.8963 C   0  0  0  0  0  0  0  0  0  0  0  0
   -9.8310   26.9737   16.6381 N   0  0  0  0  0  0  0  0  0  0  0  0
   -9.2481   26.0447   15.7588 C   0  0  0  0  0  0  0  0  0  0  0  0
   -9.5393   24.7171   15.8457 N   0  0  0  0  0  0  0  0  0  0  0  0
   -8.9484   23.8641   14.9779 C   0  0  0  0  0  0  0  0  0  0  0  0
   -8.0836   24.1452   13.9839 N   0  0  0  0  0  0  0  0  0  0  0  0
   -7.8364   25.4615   13.9357 C   0  0  0  0  0  0  0  0  0  0  0  0
   -7.0223   26.1154   13.0576 N   0  0  0  0  0  0  0  0  0  0  0  0
   -7.0720   27.4502   13.3603 C   0  0  0  0  0  0  0  0  0  0  0  0
   -7.8667   27.6918   14.3821 N   0  0  0  0  0  0  0  0  0  0  0  0
   -8.3498   26.4511   14.7540 C   0  0  0  0  0  0  0  0  0  0  0  0
  1  2  1  0
  2  3  1  0
  3  4  2  0
  3  5  1  0
  5  6  1  0
  6  7  2  0
  7  8  1  0
  8  9  2  0
  9 10  1  0
 10 11  1  0
  9 12  1  0
 12 13  2  0
 13 14  1  0
 14 15  1  0
 15 16  1  0
 16 17  1  0
 17 18  1  0
 18 19  1  0
 19 20  1  0
 20 21  1  0
 21 22  1  0
 22 23  1  0
 23 24  1  0
 24 25  2  0
 25 26  1  0
 26 27  2  0
 27 28  1  0
 28 29  1  0
 29 30  1  0
 30 31  2  0
 31 32  1  0
 13  6  1  0
 19 14  1  0
 32 24  1  0
 32 28  2  0
M  END
$$$$
