
     RDKit          3D

 19 20  0  0  0  0  0  0  0  0999 V2000
   63.4564   10.2421  -13.5281 N   0  0  0  0  0  0  0  0  0  0  0  0
   63.9635    9.7244  -14.7935 C   0  0  0  0  0  0  0  0  0  0  0  0
   63.9935   10.8033  -15.8657 C   0  0  0  0  0  0  0  0  0  0  0  0
   62.6014   11.1838  -16.3260 C   0  0  0  0  0  0  0  0  0  0  0  0
   61.8447   10.3636  -16.8497 O   0  0  0  0  0  0  0  0  0  0  0  0
   62.1728   12.6108  -16.1361 C   0  0  0  0  0  0  0  0  0  0  0  0
   61.7371   12.9179  -14.7304 C   0  0  0  0  0  0  0  0  0  0  0  0
   62.5305   13.3940  -13.9154 O   0  0  0  0  0  0  0  0  0  0  0  0
   60.3068   12.6020  -14.3537 C   0  0  0  0  0  0  0  0  0  0  0  0
   60.2148   11.2962  -13.5786 C   0  0  0  0  0  0  0  0  0  0  0  0
   58.7945   10.9097  -13.3139 C   0  0  0  0  0  0  0  0  0  0  0  0
   58.0479   11.2296  -12.1972 C   0  0  0  0  0  0  0  0  0  0  0  0
   56.7976   10.6933  -12.3488 N   0  0  0  0  0  0  0  0  0  0  0  0
   56.7059   10.0283  -13.5490 C   0  0  0  0  0  0  0  0  0  0  0  0
   55.6290    9.3393  -14.1199 C   0  0  0  0  0  0  0  0  0  0  0  0
   55.8281    8.7490  -15.3715 C   0  0  0  0  0  0  0  0  0  0  0  0
   57.0554    8.8451  -16.0232 C   0  0  0  0  0  0  0  0  0  0  0  0
   58.1215    9.5379  -15.4382 C   0  0  0  0  0  0  0  0  0  0  0  0
   57.9464   10.1429  -14.1764 C   0  0  0  0  0  0  0  0  0  0  0  0
  1  2  1  0
  2  3  1  0
  3  4  1  0
  4  5  2  0
  4  6  1  0
  6  7  1  0
  7  8  2  0
  7  9  1  0
  9 10  1  0
 10 11  1  0
 11 12  2  0
 12 13  1  0
 13 14  1  0
 14 15  2  0
 15 16  1  0
 16 17  2  0
 17 18  1  0
 18 19  2  0
 19 11  1  0
 19 14  1  0
M  END
$$$$
