
     RDKit          3D

 16 17  0  0  0  0  0  0  0  0999 V2000
   34.7453   77.6735  -21.3774 N   0  0  0  0  0  0  0  0  0  0  0  0
   35.3069   76.5826  -20.5922 C   0  0  0  0  0  0  0  0  0  0  0  0
   34.2105   75.8950  -19.7817 C   0  0  0  0  0  0  0  0  0  0  0  0
   34.7930   74.8129  -18.8816 C   0  0  0  0  0  0  0  0  0  0  0  0
   33.7255   73.9243  -18.2735 C   0  0  0  0  0  0  0  0  0  0  0  0
   33.6768   72.7247  -18.5605 O   0  0  0  0  0  0  0  0  0  0  0  0
   32.7498   74.5486  -17.2927 C   0  0  0  0  0  0  0  0  0  0  0  0
   31.4440   74.8920  -17.9307 C   0  0  0  0  0  0  0  0  0  0  0  0
   30.5771   74.0061  -18.5428 C   0  0  0  0  0  0  0  0  0  0  0  0
   29.4922   74.7025  -18.9974 N   0  0  0  0  0  0  0  0  0  0  0  0
   29.6197   76.0352  -18.6862 C   0  0  0  0  0  0  0  0  0  0  0  0
   28.7575   77.1066  -18.9489 C   0  0  0  0  0  0  0  0  0  0  0  0
   29.1454   78.3746  -18.5081 C   0  0  0  0  0  0  0  0  0  0  0  0
   30.3471   78.5601  -17.8304 C   0  0  0  0  0  0  0  0  0  0  0  0
   31.1968   77.4773  -17.5748 C   0  0  0  0  0  0  0  0  0  0  0  0
   30.8322   76.1862  -18.0114 C   0  0  0  0  0  0  0  0  0  0  0  0
  1  2  1  0
  2  3  1  0
  3  4  1  0
  4  5  1  0
  5  6  2  0
  5  7  1  0
  7  8  1  0
  8  9  2  0
  9 10  1  0
 10 11  1  0
 11 12  2  0
 12 13  1  0
 13 14  2  0
 14 15  1  0
 15 16  2  0
 16  8  1  0
 16 11  1  0
M  END
$$$$
