
     RDKit          3D

 32 35  0  0  0  0  0  0  0  0999 V2000
   -7.9866   17.6995  -18.3747 N   0  0  0  0  0  0  0  0  0  0  0  0
   -7.7202   17.9473  -19.7879 C   0  0  0  0  0  0  0  0  0  0  0  0
   -8.5451   19.0818  -20.3653 C   0  0  0  0  0  0  0  0  0  0  0  0
   -9.2542   18.8331  -21.5585 C   0  0  0  0  0  0  0  0  0  0  0  0
   -9.9846   19.8388  -22.1846 C   0  0  0  0  0  0  0  0  0  0  0  0
  -10.0132   21.1090  -21.6160 C   0  0  0  0  0  0  0  0  0  0  0  0
  -10.9177   22.4002  -22.4228 S   0  0  0  0  0  0  0  0  0  0  0  0
  -12.4714   22.1461  -21.8246 N   0  0  0  0  0  0  0  0  0  0  0  0
  -10.9338   22.1315  -23.8407 O   0  0  0  0  0  0  0  0  0  0  0  0
  -10.4927   23.6687  -21.8759 O   0  0  0  0  0  0  0  0  0  0  0  0
   -9.3142   21.3829  -20.4381 C   0  0  0  0  0  0  0  0  0  0  0  0
   -8.5785   20.3772  -19.7895 C   0  0  0  0  0  0  0  0  0  0  0  0
   -7.8592   20.6515  -18.6081 N   0  0  0  0  0  0  0  0  0  0  0  0
   -8.6539   21.2518  -17.5176 C   0  0  0  0  0  0  0  0  0  0  0  0
   -7.7522   21.6267  -16.3453 C   0  0  0  0  0  0  0  0  0  0  0  0
   -6.7184   22.6758  -16.7600 C   0  0  0  0  0  0  0  0  0  0  0  0
   -6.4315   22.6380  -18.2644 C   0  0  0  0  0  0  0  0  0  0  0  0
   -6.5038   21.2057  -18.8404 C   0  0  0  0  0  0  0  0  0  0  0  0
   -5.4241   20.4037  -18.2649 N   0  0  0  0  0  0  0  0  0  0  0  0
   -4.1299   20.5440  -18.9331 C   0  0  0  0  0  0  0  0  0  0  0  0
   -4.0281   19.7449  -20.2379 C   0  0  0  0  0  0  0  0  0  0  0  0
   -2.6703   19.9383  -20.9171 C   0  0  0  0  0  0  0  0  0  0  0  0
   -1.6201   19.2624  -20.1569 N   0  0  0  0  0  0  0  0  0  0  0  0
   -0.3438   19.4308  -20.5668 C   0  0  0  0  0  0  0  0  0  0  0  0
    0.4915   18.4934  -20.9363 N   0  0  0  0  0  0  0  0  0  0  0  0
    1.6580   19.1507  -21.2490 C   0  0  0  0  0  0  0  0  0  0  0  0
    2.8739   18.6442  -21.7277 C   0  0  0  0  0  0  0  0  0  0  0  0
    3.9257   19.5379  -21.9711 C   0  0  0  0  0  0  0  0  0  0  0  0
    3.7724   20.9062  -21.7343 C   0  0  0  0  0  0  0  0  0  0  0  0
    2.5668   21.4314  -21.2561 C   0  0  0  0  0  0  0  0  0  0  0  0
    1.5333   20.5190  -21.0332 C   0  0  0  0  0  0  0  0  0  0  0  0
    0.2469   20.6653  -20.5836 N   0  0  0  0  0  0  0  0  0  0  0  0
  1  2  1  0
  2  3  1  0
  3  4  2  0
  4  5  1  0
  5  6  2  0
  6  7  1  0
  7  8  1  0
  7  9  2  0
  7 10  2  0
  6 11  1  0
 11 12  2  0
 12 13  1  0
 13 14  1  0
 14 15  1  0
 15 16  1  0
 16 17  1  0
 17 18  1  0
 18 19  1  0
 19 20  1  0
 20 21  1  0
 21 22  1  0
 22 23  1  0
 23 24  1  0
 24 25  2  0
 25 26  1  0
 26 27  2  0
 27 28  1  0
 28 29  2  0
 29 30  1  0
 30 31  2  0
 31 32  1  0
 12  3  1  0
 18 13  1  0
 32 24  1  0
 31 26  1  0
M  END
$$$$
