
     RDKit          3D

 28 31  0  0  0  0  0  0  0  0999 V2000
   39.8697   -7.0736  -91.8249 N   0  0  0  0  0  0  0  0  0  0  0  0
   38.8272   -7.6739  -91.1709 C   0  0  0  0  0  0  0  0  0  0  0  0
   38.4188   -7.2582  -90.0952 O   0  0  0  0  0  0  0  0  0  0  0  0
   38.2379   -8.8408  -91.8619 C   0  0  0  0  0  0  0  0  0  0  0  0
   37.7425   -8.6365  -93.1546 C   0  0  0  0  0  0  0  0  0  0  0  0
   37.2018   -9.7179  -93.8185 C   0  0  0  0  0  0  0  0  0  0  0  0
   37.1322  -10.9537  -93.2886 N   0  0  0  0  0  0  0  0  0  0  0  0
   37.6176  -11.1103  -92.0315 C   0  0  0  0  0  0  0  0  0  0  0  0
   38.1969  -10.1052  -91.2535 C   0  0  0  0  0  0  0  0  0  0  0  0
   38.6961  -10.3292  -89.9668 N   0  0  0  0  0  0  0  0  0  0  0  0
   37.7430  -10.0045  -88.8830 C   0  0  0  0  0  0  0  0  0  0  0  0
   37.0841  -11.2613  -88.3307 C   0  0  0  0  0  0  0  0  0  0  0  0
   35.9177  -11.2754  -87.9330 O   0  0  0  0  0  0  0  0  0  0  0  0
   37.9349  -12.5102  -88.2685 C   0  0  0  0  0  0  0  0  0  0  0  0
   39.4058  -12.1526  -88.4232 C   0  0  0  0  0  0  0  0  0  0  0  0
   39.6505  -11.4441  -89.7666 C   0  0  0  0  0  0  0  0  0  0  0  0
   41.1068  -10.9068  -89.8747 C   0  0  0  0  0  0  0  0  0  0  0  0
   41.4115   -9.8983  -88.8526 N   0  0  0  0  0  0  0  0  0  0  0  0
   42.7919   -9.4268  -88.9094 C   0  0  0  0  0  0  0  0  0  0  0  0
   42.9300   -8.2708  -89.8488 C   0  0  0  0  0  0  0  0  0  0  0  0
   42.7222   -6.9391  -89.5321 C   0  0  0  0  0  0  0  0  0  0  0  0
   43.0228   -6.1779  -90.6282 N   0  0  0  0  0  0  0  0  0  0  0  0
   43.3847   -6.9862  -91.6814 C   0  0  0  0  0  0  0  0  0  0  0  0
   43.7509   -6.6480  -92.9902 C   0  0  0  0  0  0  0  0  0  0  0  0
   44.0957   -7.6892  -93.8566 C   0  0  0  0  0  0  0  0  0  0  0  0
   44.0807   -9.0126  -93.4258 C   0  0  0  0  0  0  0  0  0  0  0  0
   43.7156   -9.3326  -92.1127 C   0  0  0  0  0  0  0  0  0  0  0  0
   43.3501   -8.3029  -91.2197 C   0  0  0  0  0  0  0  0  0  0  0  0
  1  2  1  0
  2  3  2  0
  2  4  1  0
  4  5  2  0
  5  6  1  0
  6  7  2  0
  7  8  1  0
  8  9  2  0
  9 10  1  0
 10 11  1  0
 11 12  1  0
 12 13  2  0
 12 14  1  0
 14 15  1  0
 15 16  1  0
 16 17  1  0
 17 18  1  0
 18 19  1  0
 19 20  1  0
 20 21  2  0
 21 22  1  0
 22 23  1  0
 23 24  2  0
 24 25  1  0
 25 26  2  0
 26 27  1  0
 27 28  2  0
  9  4  1  0
 16 10  1  0
 28 20  1  0
 28 23  1  0
M  END
$$$$
