
     RDKit          3D

 29 32  0  0  0  0  0  0  0  0999 V2000
    1.7829   -3.7720   17.9467 C   0  0  0  0  0  0  0  0  0  0  0  0
    2.5680   -3.8671   19.1285 O   0  0  0  0  0  0  0  0  0  0  0  0
    2.8869   -5.1264   19.5569 C   0  0  0  0  0  0  0  0  0  0  0  0
    2.6370   -6.3118   18.8739 C   0  0  0  0  0  0  0  0  0  0  0  0
    3.0060   -7.5364   19.4416 C   0  0  0  0  0  0  0  0  0  0  0  0
    3.6441   -7.6061   20.6946 C   0  0  0  0  0  0  0  0  0  0  0  0
    3.9846   -8.9364   21.3356 C   0  0  0  0  0  0  0  0  0  0  0  0
    4.0470  -10.0710   20.4048 N   0  0  0  0  0  0  0  0  0  0  0  0
    3.9092   -6.4004   21.3855 C   0  0  0  0  0  0  0  0  0  0  0  0
    4.5185   -6.4423   22.6649 N   0  0  0  0  0  0  0  0  0  0  0  0
    3.5316   -6.2196   23.7455 C   0  0  0  0  0  0  0  0  0  0  0  0
    3.4663   -4.7677   24.1843 C   0  0  0  0  0  0  0  0  0  0  0  0
    2.4024   -4.2116   24.4671 O   0  0  0  0  0  0  0  0  0  0  0  0
    4.7786   -4.0329   24.2994 C   0  0  0  0  0  0  0  0  0  0  0  0
    5.9534   -4.9777   24.0815 C   0  0  0  0  0  0  0  0  0  0  0  0
    5.8217   -5.7187   22.7403 C   0  0  0  0  0  0  0  0  0  0  0  0
    6.9484   -6.7554   22.5397 C   0  0  0  0  0  0  0  0  0  0  0  0
    8.3608   -6.1700   22.5312 C   0  0  0  0  0  0  0  0  0  0  0  0
    8.5197   -5.2773   21.3955 N   0  0  0  0  0  0  0  0  0  0  0  0
    9.7297   -4.5774   21.3555 C   0  0  0  0  0  0  0  0  0  0  0  0
   10.3160   -4.1271   22.4968 N   0  0  0  0  0  0  0  0  0  0  0  0
   11.4569   -3.4075   22.4026 C   0  0  0  0  0  0  0  0  0  0  0  0
   12.1466   -3.0681   21.2953 N   0  0  0  0  0  0  0  0  0  0  0  0
   11.5364   -3.5470   20.2006 C   0  0  0  0  0  0  0  0  0  0  0  0
   11.9396   -3.4091   18.9032 N   0  0  0  0  0  0  0  0  0  0  0  0
   11.0368   -4.0656   18.1157 C   0  0  0  0  0  0  0  0  0  0  0  0
   10.0689   -4.6071   18.8238 N   0  0  0  0  0  0  0  0  0  0  0  0
   10.3700   -4.2861   20.1350 C   0  0  0  0  0  0  0  0  0  0  0  0
    3.5231   -5.1780   20.8005 C   0  0  0  0  0  0  0  0  0  0  0  0
  1  2  1  0
  2  3  1  0
  3  4  2  0
  4  5  1  0
  5  6  2  0
  6  7  1  0
  7  8  1  0
  6  9  1  0
  9 10  1  0
 10 11  1  0
 11 12  1  0
 12 13  2  0
 12 14  1  0
 14 15  1  0
 15 16  1  0
 16 17  1  0
 17 18  1  0
 18 19  1  0
 19 20  1  0
 20 21  2  0
 21 22  1  0
 22 23  2  0
 23 24  1  0
 24 25  1  0
 25 26  1  0
 26 27  2  0
 27 28  1  0
  9 29  2  0
 29  3  1  0
 16 10  1  0
 28 20  1  0
 28 24  2  0
M  END
$$$$
