
     RDKit          3D

 27 29  0  0  0  0  0  0  0  0999 V2000
   19.2133   12.1812  -31.0266 N   0  0  0  0  0  0  0  0  0  0  0  0
   19.8005   11.6796  -32.1519 C   0  0  0  0  0  0  0  0  0  0  0  0
   20.9409   11.9580  -32.4995 O   0  0  0  0  0  0  0  0  0  0  0  0
   18.9659   10.7664  -32.9645 C   0  0  0  0  0  0  0  0  0  0  0  0
   18.7158   11.1666  -34.2873 C   0  0  0  0  0  0  0  0  0  0  0  0
   17.9401   10.3675  -35.1263 C   0  0  0  0  0  0  0  0  0  0  0  0
   17.4239    9.1665  -34.6451 C   0  0  0  0  0  0  0  0  0  0  0  0
   16.4711    8.1756  -35.6782 Cl  0  0  0  0  0  0  0  0  0  0  0  0
   17.6831    8.7519  -33.3338 C   0  0  0  0  0  0  0  0  0  0  0  0
   18.4702    9.5403  -32.4714 C   0  0  0  0  0  0  0  0  0  0  0  0
   18.7682    9.0203  -31.0792 C   0  0  0  0  0  0  0  0  0  0  0  0
   18.0141    9.7969  -30.1468 O   0  0  0  0  0  0  0  0  0  0  0  0
   20.2697    8.9929  -30.6983 C   0  0  0  0  0  0  0  0  0  0  0  0
   20.6327    9.3012  -29.5614 O   0  0  0  0  0  0  0  0  0  0  0  0
   21.1421    8.5654  -31.6701 N   0  0  0  0  0  0  0  0  0  0  0  0
   22.5785    8.7389  -31.5034 C   0  0  0  0  0  0  0  0  0  0  0  0
   23.2969    8.4998  -32.8306 C   0  0  0  0  0  0  0  0  0  0  0  0
   22.6398    8.1943  -33.8344 O   0  0  0  0  0  0  0  0  0  0  0  0
   24.7560    8.6372  -32.8965 C   0  0  0  0  0  0  0  0  0  0  0  0
   25.4665    8.5011  -34.0802 C   0  0  0  0  0  0  0  0  0  0  0  0
   26.7933    8.6770  -33.8213 N   0  0  0  0  0  0  0  0  0  0  0  0
   26.9832    8.9212  -32.4835 C   0  0  0  0  0  0  0  0  0  0  0  0
   28.1734    9.1441  -31.7831 C   0  0  0  0  0  0  0  0  0  0  0  0
   28.0885    9.3786  -30.4108 C   0  0  0  0  0  0  0  0  0  0  0  0
   26.8582    9.3941  -29.7681 C   0  0  0  0  0  0  0  0  0  0  0  0
   25.6766    9.1675  -30.4819 C   0  0  0  0  0  0  0  0  0  0  0  0
   25.7251    8.9179  -31.8721 C   0  0  0  0  0  0  0  0  0  0  0  0
  1  2  1  0
  2  3  2  0
  2  4  1  0
  4  5  2  0
  5  6  1  0
  6  7  2  0
  7  8  1  0
  7  9  1  0
  9 10  2  0
 10 11  1  0
 11 12  1  0
 11 13  1  0
 13 14  2  0
 13 15  1  0
 15 16  1  0
 16 17  1  0
 17 18  2  0
 17 19  1  0
 19 20  2  0
 20 21  1  0
 21 22  1  0
 22 23  2  0
 23 24  1  0
 24 25  2  0
 25 26  1  0
 26 27  2  0
 10  4  1  0
 27 19  1  0
 27 22  1  0
M  END
$$$$
