
     RDKit          3D

 23 25  0  0  0  0  0  0  0  0999 V2000
   -4.2514   -4.6197  -53.5892 C   0  0  0  0  0  0  0  0  0  0  0  0
   -3.1072   -5.3151  -53.1093 O   0  0  0  0  0  0  0  0  0  0  0  0
   -2.3080   -4.6483  -52.2218 C   0  0  0  0  0  0  0  0  0  0  0  0
   -2.4260   -3.3118  -51.8597 C   0  0  0  0  0  0  0  0  0  0  0  0
   -1.5343   -2.7623  -50.9359 C   0  0  0  0  0  0  0  0  0  0  0  0
   -0.5156   -3.5374  -50.3453 C   0  0  0  0  0  0  0  0  0  0  0  0
    0.3870   -2.8917  -49.3151 C   0  0  0  0  0  0  0  0  0  0  0  0
   -0.3588   -2.4011  -48.1496 N   0  0  0  0  0  0  0  0  0  0  0  0
   -0.3683   -4.8851  -50.7352 C   0  0  0  0  0  0  0  0  0  0  0  0
    0.6905   -5.6667  -50.2286 N   0  0  0  0  0  0  0  0  0  0  0  0
    0.2778   -6.8957  -49.5316 C   0  0  0  0  0  0  0  0  0  0  0  0
    0.3509   -8.1301  -50.4117 C   0  0  0  0  0  0  0  0  0  0  0  0
   -0.4265   -9.0773  -50.2807 O   0  0  0  0  0  0  0  0  0  0  0  0
    1.4515   -8.1714  -51.4419 C   0  0  0  0  0  0  0  0  0  0  0  0
    2.5026   -7.1181  -51.1230 C   0  0  0  0  0  0  0  0  0  0  0  0
    1.8744   -5.6989  -51.1258 C   0  0  0  0  0  0  0  0  0  0  0  0
    2.8868   -4.6536  -50.9188 N   0  0  0  0  0  0  0  0  0  0  0  0
    3.6998   -4.7907  -49.7192 C   0  0  0  0  0  0  0  0  0  0  0  0
    4.3578   -3.4496  -49.3708 C   0  0  0  0  0  0  0  0  0  0  0  0
    4.8095   -2.6576  -50.6007 C   0  0  0  0  0  0  0  0  0  0  0  0
    4.9627   -3.5659  -51.8128 C   0  0  0  0  0  0  0  0  0  0  0  0
    3.6566   -4.3142  -52.1168 C   0  0  0  0  0  0  0  0  0  0  0  0
   -1.2814   -5.4184  -51.6663 C   0  0  0  0  0  0  0  0  0  0  0  0
  1  2  1  0
  2  3  1  0
  3  4  2  0
  4  5  1  0
  5  6  2  0
  6  7  1  0
  7  8  1  0
  6  9  1  0
  9 10  1  0
 10 11  1  0
 11 12  1  0
 12 13  2  0
 12 14  1  0
 14 15  1  0
 15 16  1  0
 16 17  1  0
 17 18  1  0
 18 19  1  0
 19 20  1  0
 20 21  1  0
 21 22  1  0
  9 23  2  0
 23  3  1  0
 16 10  1  0
 22 17  1  0
M  END
$$$$
