
     RDKit          3D

 23 25  0  0  0  0  0  0  0  0999 V2000
   42.5463  -22.9319  -49.7173 C   0  0  0  0  0  0  0  0  0  0  0  0
   43.1750  -22.3222  -48.5978 O   0  0  0  0  0  0  0  0  0  0  0  0
   42.6137  -21.1717  -48.1084 C   0  0  0  0  0  0  0  0  0  0  0  0
   41.4587  -20.5716  -48.6167 C   0  0  0  0  0  0  0  0  0  0  0  0
   40.9594  -19.3969  -48.0467 C   0  0  0  0  0  0  0  0  0  0  0  0
   41.6022  -18.7992  -46.9574 C   0  0  0  0  0  0  0  0  0  0  0  0
   41.0600  -17.5303  -46.3515 C   0  0  0  0  0  0  0  0  0  0  0  0
   39.7522  -17.7470  -45.7443 N   0  0  0  0  0  0  0  0  0  0  0  0
   42.7570  -19.4040  -46.4459 C   0  0  0  0  0  0  0  0  0  0  0  0
   43.2726  -20.5849  -47.0120 C   0  0  0  0  0  0  0  0  0  0  0  0
   44.5346  -21.1872  -46.4328 C   0  0  0  0  0  0  0  0  0  0  0  0
   45.7888  -20.9435  -47.2784 C   0  0  0  0  0  0  0  0  0  0  0  0
   46.1668  -19.4627  -47.3639 C   0  0  0  0  0  0  0  0  0  0  0  0
   47.4191  -19.2751  -48.0803 N   0  0  0  0  0  0  0  0  0  0  0  0
   48.5999  -19.5959  -47.4110 C   0  0  0  0  0  0  0  0  0  0  0  0
   48.6883  -19.5043  -46.0559 N   0  0  0  0  0  0  0  0  0  0  0  0
   49.8604  -19.8094  -45.4560 C   0  0  0  0  0  0  0  0  0  0  0  0
   51.0120  -20.2206  -46.0246 N   0  0  0  0  0  0  0  0  0  0  0  0
   50.8726  -20.3011  -47.3546 C   0  0  0  0  0  0  0  0  0  0  0  0
   51.8216  -20.6826  -48.2574 N   0  0  0  0  0  0  0  0  0  0  0  0
   51.2535  -20.6304  -49.5014 C   0  0  0  0  0  0  0  0  0  0  0  0
   49.9977  -20.2379  -49.4527 N   0  0  0  0  0  0  0  0  0  0  0  0
   49.7479  -20.0200  -48.1098 C   0  0  0  0  0  0  0  0  0  0  0  0
  1  2  1  0
  2  3  1  0
  3  4  2  0
  4  5  1  0
  5  6  2  0
  6  7  1  0
  7  8  1  0
  6  9  1  0
  9 10  2  0
 10 11  1  0
 11 12  1  0
 12 13  1  0
 13 14  1  0
 14 15  1  0
 15 16  2  0
 16 17  1  0
 17 18  2  0
 18 19  1  0
 19 20  1  0
 20 21  1  0
 21 22  2  0
 22 23  1  0
 10  3  1  0
 23 15  1  0
 23 19  2  0
M  END
$$$$
