
     RDKit          3D

 32 35  0  0  0  0  0  0  0  0999 V2000
    5.6419   10.7608  -30.9388 N   0  0  0  0  0  0  0  0  0  0  0  0
    4.6719    9.4022  -30.6627 S   0  0  0  0  0  0  0  0  0  0  0  0
    5.2116    8.8269  -29.4512 O   0  0  0  0  0  0  0  0  0  0  0  0
    3.3268    9.9190  -30.7659 O   0  0  0  0  0  0  0  0  0  0  0  0
    5.0026    8.3326  -32.0256 C   0  0  0  0  0  0  0  0  0  0  0  0
    5.9366    8.7166  -32.9937 C   0  0  0  0  0  0  0  0  0  0  0  0
    6.1323    7.8820  -34.0768 C   0  0  0  0  0  0  0  0  0  0  0  0
    5.4740    6.7222  -34.2478 N   0  0  0  0  0  0  0  0  0  0  0  0
    4.5725    6.3838  -33.2930 C   0  0  0  0  0  0  0  0  0  0  0  0
    4.2850    7.1325  -32.1472 C   0  0  0  0  0  0  0  0  0  0  0  0
    3.4008    6.6887  -31.1510 N   0  0  0  0  0  0  0  0  0  0  0  0
    4.0603    5.8242  -30.1506 C   0  0  0  0  0  0  0  0  0  0  0  0
    3.6849    4.3614  -30.3580 C   0  0  0  0  0  0  0  0  0  0  0  0
    2.1762    4.1412  -30.2618 C   0  0  0  0  0  0  0  0  0  0  0  0
    1.3749    5.4188  -30.5055 C   0  0  0  0  0  0  0  0  0  0  0  0
    2.0271    6.3066  -31.5876 C   0  0  0  0  0  0  0  0  0  0  0  0
    1.1771    7.5844  -31.8029 C   0  0  0  0  0  0  0  0  0  0  0  0
   -0.1839    7.3091  -32.2169 N   0  0  0  0  0  0  0  0  0  0  0  0
   -0.5772    7.2188  -33.5293 C   0  0  0  0  0  0  0  0  0  0  0  0
    0.2138    7.3081  -34.4645 O   0  0  0  0  0  0  0  0  0  0  0  0
   -2.0368    6.9930  -33.7847 C   0  0  0  0  0  0  0  0  0  0  0  0
   -2.3837    6.7048  -35.1156 C   0  0  0  0  0  0  0  0  0  0  0  0
   -3.7099    6.4846  -35.4295 C   0  0  0  0  0  0  0  0  0  0  0  0
   -4.7026    6.5302  -34.5244 N   0  0  0  0  0  0  0  0  0  0  0  0
   -4.3466    6.8002  -33.2471 C   0  0  0  0  0  0  0  0  0  0  0  0
   -3.0416    7.0343  -32.7945 C   0  0  0  0  0  0  0  0  0  0  0  0
   -2.7650    7.3480  -31.4413 N   0  0  0  0  0  0  0  0  0  0  0  0
   -3.2931    6.3693  -30.4709 C   0  0  0  0  0  0  0  0  0  0  0  0
   -2.9199    6.8182  -29.0615 C   0  0  0  0  0  0  0  0  0  0  0  0
   -3.5028    8.1939  -28.7270 C   0  0  0  0  0  0  0  0  0  0  0  0
   -3.9865    8.9489  -29.9637 C   0  0  0  0  0  0  0  0  0  0  0  0
   -3.0305    8.7789  -31.1409 C   0  0  0  0  0  0  0  0  0  0  0  0
  1  2  1  0
  2  3  2  0
  2  4  2  0
  2  5  1  0
  5  6  2  0
  6  7  1  0
  7  8  2  0
  8  9  1  0
  9 10  2  0
 10 11  1  0
 11 12  1  0
 12 13  1  0
 13 14  1  0
 14 15  1  0
 15 16  1  0
 16 17  1  0
 17 18  1  0
 18 19  1  0
 19 20  2  0
 19 21  1  0
 21 22  2  0
 22 23  1  0
 23 24  2  0
 24 25  1  0
 25 26  2  0
 26 27  1  0
 27 28  1  0
 28 29  1  0
 29 30  1  0
 30 31  1  0
 31 32  1  0
 10  5  1  0
 16 11  1  0
 26 21  1  0
 32 27  1  0
M  END
$$$$
