
     RDKit          3D

 32 35  0  0  0  0  0  0  0  0999 V2000
   -8.8696    0.9625  -11.3901 N   0  0  0  0  0  0  0  0  0  0  0  0
   -8.1375   -0.2736  -11.1253 C   0  0  0  0  0  0  0  0  0  0  0  0
   -8.7606   -1.4346  -11.8578 C   0  0  0  0  0  0  0  0  0  0  0  0
   -9.9450   -1.9901  -11.3448 C   0  0  0  0  0  0  0  0  0  0  0  0
  -10.5405   -3.0498  -12.0064 C   0  0  0  0  0  0  0  0  0  0  0  0
  -10.0476   -3.5968  -13.1331 N   0  0  0  0  0  0  0  0  0  0  0  0
   -8.9153   -3.0372  -13.6204 C   0  0  0  0  0  0  0  0  0  0  0  0
   -8.2228   -1.9586  -13.0463 C   0  0  0  0  0  0  0  0  0  0  0  0
   -7.0602   -1.3967  -13.6295 N   0  0  0  0  0  0  0  0  0  0  0  0
   -5.9604   -2.3795  -13.8374 C   0  0  0  0  0  0  0  0  0  0  0  0
   -4.7439   -1.8872  -13.0307 C   0  0  0  0  0  0  0  0  0  0  0  0
   -3.6092   -2.8884  -13.0085 C   0  0  0  0  0  0  0  0  0  0  0  0
   -3.7059   -4.0319  -13.4379 O   0  0  0  0  0  0  0  0  0  0  0  0
   -2.4557   -2.3822  -12.4502 N   0  0  0  0  0  0  0  0  0  0  0  0
   -1.2254   -3.1494  -12.3980 C   0  0  0  0  0  0  0  0  0  0  0  0
   -0.4784   -3.0930  -13.7294 C   0  0  0  0  0  0  0  0  0  0  0  0
    0.8101   -3.9157  -13.7164 C   0  0  0  0  0  0  0  0  0  0  0  0
    1.8704   -3.3458  -12.8278 C   0  0  0  0  0  0  0  0  0  0  0  0
    2.2511   -3.8323  -11.5924 C   0  0  0  0  0  0  0  0  0  0  0  0
    3.2523   -3.0366  -11.1050 N   0  0  0  0  0  0  0  0  0  0  0  0
    3.5389   -2.0318  -11.9981 C   0  0  0  0  0  0  0  0  0  0  0  0
    4.4797   -0.9977  -11.9205 C   0  0  0  0  0  0  0  0  0  0  0  0
    4.5571   -0.1104  -12.9970 C   0  0  0  0  0  0  0  0  0  0  0  0
    3.7263   -0.2536  -14.1054 C   0  0  0  0  0  0  0  0  0  0  0  0
    2.7912   -1.2932  -14.1665 C   0  0  0  0  0  0  0  0  0  0  0  0
    2.6911   -2.2020  -13.0930 C   0  0  0  0  0  0  0  0  0  0  0  0
   -5.6853   -2.5623  -15.3421 C   0  0  0  0  0  0  0  0  0  0  0  0
   -5.2833   -1.2660  -16.0276 C   0  0  0  0  0  0  0  0  0  0  0  0
   -6.1655   -0.1286  -15.5822 C   0  0  0  0  0  0  0  0  0  0  0  0
   -5.9328    1.0335  -15.9302 O   0  0  0  0  0  0  0  0  0  0  0  0
   -7.4011   -0.4826  -14.7359 C   0  0  0  0  0  0  0  0  0  0  0  0
   -7.9286    0.7252  -14.1983 O   0  0  0  0  0  0  0  0  0  0  0  0
  1  2  1  0
  2  3  1  0
  3  4  2  0
  4  5  1  0
  5  6  2  0
  6  7  1  0
  7  8  2  0
  8  9  1  0
  9 10  1  0
 10 11  1  0
 11 12  1  0
 12 13  2  0
 12 14  1  0
 14 15  1  0
 15 16  1  0
 16 17  1  0
 17 18  1  0
 18 19  2  0
 19 20  1  0
 20 21  1  0
 21 22  2  0
 22 23  1  0
 23 24  2  0
 24 25  1  0
 25 26  2  0
 10 27  1  0
 27 28  1  0
 28 29  1  0
 29 30  2  0
 29 31  1  0
 31 32  1  0
  8  3  1  0
 31  9  1  0
 26 18  1  0
 26 21  1  0
M  END
$$$$
