
     RDKit          3D

 26 28  0  0  0  0  0  0  0  0999 V2000
  -56.0646   24.2530    1.5671 C   0  0  0  0  0  0  0  0  0  0  0  0
  -55.5176   25.2572    0.6924 N   0  0  0  0  0  0  0  0  0  0  0  0
  -54.5470   26.1297    1.1294 C   0  0  0  0  0  0  0  0  0  0  0  0
  -54.0274   26.0644    2.2331 O   0  0  0  0  0  0  0  0  0  0  0  0
  -54.1496   27.1581    0.0916 C   0  0  0  0  0  0  0  0  0  0  0  0
  -54.8489   28.4848    0.2783 C   0  0  0  0  0  0  0  0  0  0  0  0
  -54.2415   29.4262    1.1276 C   0  0  0  0  0  0  0  0  0  0  0  0
  -54.8236   30.6724    1.3598 C   0  0  0  0  0  0  0  0  0  0  0  0
  -56.0244   30.9992    0.7429 C   0  0  0  0  0  0  0  0  0  0  0  0
  -56.6966   32.1834    0.8694 O   0  0  0  0  0  0  0  0  0  0  0  0
  -56.0789   33.1861    1.6667 C   0  0  0  0  0  0  0  0  0  0  0  0
  -56.6435   30.0626   -0.0903 C   0  0  0  0  0  0  0  0  0  0  0  0
  -56.0891   28.7908   -0.3269 C   0  0  0  0  0  0  0  0  0  0  0  0
  -56.7084   27.8449   -1.1931 N   0  0  0  0  0  0  0  0  0  0  0  0
  -56.2242   28.1097   -2.5755 C   0  0  0  0  0  0  0  0  0  0  0  0
  -56.7400   27.0799   -3.5739 C   0  0  0  0  0  0  0  0  0  0  0  0
  -56.1867   26.9250   -4.6786 O   0  0  0  0  0  0  0  0  0  0  0  0
  -58.0673   26.3982   -3.2970 C   0  0  0  0  0  0  0  0  0  0  0  0
  -58.5370   26.4349   -1.8446 C   0  0  0  0  0  0  0  0  0  0  0  0
  -58.1972   27.7775   -1.1537 C   0  0  0  0  0  0  0  0  0  0  0  0
  -58.9422   27.9483    0.0943 N   0  0  0  0  0  0  0  0  0  0  0  0
  -60.3399   28.3248   -0.0534 C   0  0  0  0  0  0  0  0  0  0  0  0
  -60.8772   28.8299    1.2845 C   0  0  0  0  0  0  0  0  0  0  0  0
  -60.7067   27.8137    2.4140 C   0  0  0  0  0  0  0  0  0  0  0  0
  -59.8714   26.6101    1.9939 C   0  0  0  0  0  0  0  0  0  0  0  0
  -58.6431   27.0138    1.1750 C   0  0  0  0  0  0  0  0  0  0  0  0
  1  2  1  0
  2  3  1  0
  3  4  2  0
  3  5  1  0
  5  6  1  0
  6  7  2  0
  7  8  1  0
  8  9  2  0
  9 10  1  0
 10 11  1  0
  9 12  1  0
 12 13  2  0
 13 14  1  0
 14 15  1  0
 15 16  1  0
 16 17  2  0
 16 18  1  0
 18 19  1  0
 19 20  1  0
 20 21  1  0
 21 22  1  0
 22 23  1  0
 23 24  1  0
 24 25  1  0
 25 26  1  0
 13  6  1  0
 20 14  1  0
 26 21  1  0
M  END
$$$$
