
     RDKit          3D

 32 35  0  0  0  0  0  0  0  0999 V2000
   13.7829  -11.8804   -4.9789 N   0  0  0  0  0  0  0  0  0  0  0  0
   12.3977  -11.7033   -5.9311 S   0  0  0  0  0  0  0  0  0  0  0  0
   12.1343  -13.0334   -6.4320 O   0  0  0  0  0  0  0  0  0  0  0  0
   12.7118  -10.5785   -6.7832 O   0  0  0  0  0  0  0  0  0  0  0  0
   11.1285  -11.2529   -4.7879 C   0  0  0  0  0  0  0  0  0  0  0  0
   11.3729  -11.3457   -3.4135 C   0  0  0  0  0  0  0  0  0  0  0  0
   10.3654  -10.9679   -2.5456 C   0  0  0  0  0  0  0  0  0  0  0  0
    9.1635  -10.5131   -2.9517 N   0  0  0  0  0  0  0  0  0  0  0  0
    8.9595  -10.4380   -4.2890 C   0  0  0  0  0  0  0  0  0  0  0  0
    9.8899  -10.8035   -5.2703 C   0  0  0  0  0  0  0  0  0  0  0  0
    9.6268  -10.6961   -6.6494 N   0  0  0  0  0  0  0  0  0  0  0  0
    9.5567   -9.2446   -7.0088 C   0  0  0  0  0  0  0  0  0  0  0  0
    9.3440   -9.0589   -8.5002 C   0  0  0  0  0  0  0  0  0  0  0  0
    9.1587   -7.9489   -9.0032 O   0  0  0  0  0  0  0  0  0  0  0  0
    9.4315  -10.2994   -9.3406 C   0  0  0  0  0  0  0  0  0  0  0  0
    8.5672  -11.4137   -8.7577 C   0  0  0  0  0  0  0  0  0  0  0  0
    8.4828  -11.4786   -7.2020 C   0  0  0  0  0  0  0  0  0  0  0  0
    8.4658  -12.9800   -6.8166 C   0  0  0  0  0  0  0  0  0  0  0  0
    7.8236  -13.3514   -5.4763 C   0  0  0  0  0  0  0  0  0  0  0  0
    6.5208  -12.7141   -5.3191 N   0  0  0  0  0  0  0  0  0  0  0  0
    5.3306  -13.4455   -5.5424 C   0  0  0  0  0  0  0  0  0  0  0  0
    5.2507  -14.5036   -6.4501 C   0  0  0  0  0  0  0  0  0  0  0  0
    4.0464  -15.1720   -6.5981 C   0  0  0  0  0  0  0  0  0  0  0  0
    2.9232  -14.8549   -5.9291 N   0  0  0  0  0  0  0  0  0  0  0  0
    3.0070  -13.7938   -5.0894 C   0  0  0  0  0  0  0  0  0  0  0  0
    4.1506  -13.0219   -4.8682 C   0  0  0  0  0  0  0  0  0  0  0  0
    4.1976  -11.9014   -4.0174 N   0  0  0  0  0  0  0  0  0  0  0  0
    4.3491  -10.6052   -4.7053 C   0  0  0  0  0  0  0  0  0  0  0  0
    2.9922   -9.9484   -4.9583 C   0  0  0  0  0  0  0  0  0  0  0  0
    2.2029   -9.8119   -3.6610 C   0  0  0  0  0  0  0  0  0  0  0  0
    2.0412  -11.1708   -2.9883 C   0  0  0  0  0  0  0  0  0  0  0  0
    3.3828  -11.8807   -2.7961 C   0  0  0  0  0  0  0  0  0  0  0  0
  1  2  1  0
  2  3  2  0
  2  4  2  0
  2  5  1  0
  5  6  2  0
  6  7  1  0
  7  8  2  0
  8  9  1  0
  9 10  2  0
 10 11  1  0
 11 12  1  0
 12 13  1  0
 13 14  2  0
 13 15  1  0
 15 16  1  0
 16 17  1  0
 17 18  1  0
 18 19  1  0
 19 20  1  0
 20 21  1  0
 21 22  2  0
 22 23  1  0
 23 24  2  0
 24 25  1  0
 25 26  2  0
 26 27  1  0
 27 28  1  0
 28 29  1  0
 29 30  1  0
 30 31  1  0
 31 32  1  0
 10  5  1  0
 17 11  1  0
 26 21  1  0
 32 27  1  0
M  END
$$$$
