
     RDKit          3D

 26 28  0  0  0  0  0  0  0  0999 V2000
    0.3341   -8.5015    7.3623 C   0  0  0  0  0  0  0  0  0  0  0  0
   -0.4066   -8.0598    8.5025 O   0  0  0  0  0  0  0  0  0  0  0  0
   -0.6771   -6.7181    8.4092 C   0  0  0  0  0  0  0  0  0  0  0  0
   -1.6268   -6.2674    7.4896 C   0  0  0  0  0  0  0  0  0  0  0  0
   -1.9361   -4.9090    7.4136 C   0  0  0  0  0  0  0  0  0  0  0  0
   -1.3141   -3.9922    8.2702 C   0  0  0  0  0  0  0  0  0  0  0  0
   -1.6371   -2.5221    8.1916 C   0  0  0  0  0  0  0  0  0  0  0  0
   -0.4895   -1.7489    7.7292 N   0  0  0  0  0  0  0  0  0  0  0  0
   -0.3782   -4.4640    9.2059 C   0  0  0  0  0  0  0  0  0  0  0  0
   -0.0503   -5.8285    9.2919 C   0  0  0  0  0  0  0  0  0  0  0  0
    0.9687   -6.3008   10.3026 C   0  0  0  0  0  0  0  0  0  0  0  0
    2.2955   -6.5426    9.7187 N   0  0  0  0  0  0  0  0  0  0  0  0
    3.0887   -5.3140    9.5281 C   0  0  0  0  0  0  0  0  0  0  0  0
    4.0659   -4.9716   10.6718 C   0  0  0  0  0  0  0  0  0  0  0  0
    3.3655   -4.9290   11.9229 O   0  0  0  0  0  0  0  0  0  0  0  0
    5.1999   -5.9970   10.7250 C   0  0  0  0  0  0  0  0  0  0  0  0
    5.1154   -6.9066   11.5637 O   0  0  0  0  0  0  0  0  0  0  0  0
    6.3455   -5.9240    9.8096 C   0  0  0  0  0  0  0  0  0  0  0  0
    7.3342   -6.8965    9.8089 C   0  0  0  0  0  0  0  0  0  0  0  0
    8.2711   -6.5796    8.8710 N   0  0  0  0  0  0  0  0  0  0  0  0
    7.9302   -5.4077    8.2430 C   0  0  0  0  0  0  0  0  0  0  0  0
    8.6089   -4.7207    7.2264 C   0  0  0  0  0  0  0  0  0  0  0  0
    8.0467   -3.5375    6.7502 C   0  0  0  0  0  0  0  0  0  0  0  0
    6.8498   -3.0639    7.2724 C   0  0  0  0  0  0  0  0  0  0  0  0
    6.1826   -3.7628    8.2898 C   0  0  0  0  0  0  0  0  0  0  0  0
    6.7230   -4.9660    8.7999 C   0  0  0  0  0  0  0  0  0  0  0  0
  1  2  1  0
  2  3  1  0
  3  4  2  0
  4  5  1  0
  5  6  2  0
  6  7  1  0
  7  8  1  0
  6  9  1  0
  9 10  2  0
 10 11  1  0
 11 12  1  0
 12 13  1  0
 13 14  1  0
 14 15  1  0
 14 16  1  0
 16 17  2  0
 16 18  1  0
 18 19  2  0
 19 20  1  0
 20 21  1  0
 21 22  2  0
 22 23  1  0
 23 24  2  0
 24 25  1  0
 25 26  2  0
 10  3  1  0
 26 18  1  0
 26 21  1  0
M  END
$$$$
