
     RDKit          3D

 26 28  0  0  0  0  0  0  0  0999 V2000
  -46.7011    9.6641   17.8202 N   0  0  0  0  0  0  0  0  0  0  0  0
  -46.2476    8.8962   18.9803 C   0  0  0  0  0  0  0  0  0  0  0  0
  -46.3454    9.7117   20.2632 C   0  0  0  0  0  0  0  0  0  0  0  0
  -47.7843    9.9171   20.6888 C   0  0  0  0  0  0  0  0  0  0  0  0
  -48.5537    8.9607   20.8000 O   0  0  0  0  0  0  0  0  0  0  0  0
  -48.2008   11.3322   21.0538 C   0  0  0  0  0  0  0  0  0  0  0  0
  -49.6730   11.6149   20.7316 C   0  0  0  0  0  0  0  0  0  0  0  0
  -50.0501   11.5463   19.2602 C   0  0  0  0  0  0  0  0  0  0  0  0
  -49.2008   12.1632   18.3200 C   0  0  0  0  0  0  0  0  0  0  0  0
  -49.4403   12.0026   16.9668 C   0  0  0  0  0  0  0  0  0  0  0  0
  -50.4609   11.2823   16.4814 N   0  0  0  0  0  0  0  0  0  0  0  0
  -51.3035   10.7516   17.4015 C   0  0  0  0  0  0  0  0  0  0  0  0
  -51.1977   10.8651   18.7970 C   0  0  0  0  0  0  0  0  0  0  0  0
  -52.1794   10.3468   19.6236 N   0  0  0  0  0  0  0  0  0  0  0  0
  -52.8314   11.1712   20.6491 C   0  0  0  0  0  0  0  0  0  0  0  0
  -52.7790   10.4895   22.0114 C   0  0  0  0  0  0  0  0  0  0  0  0
  -52.7321   11.1436   23.0571 O   0  0  0  0  0  0  0  0  0  0  0  0
  -52.9235    8.9818   22.0449 C   0  0  0  0  0  0  0  0  0  0  0  0
  -52.1941    8.3339   20.8703 C   0  0  0  0  0  0  0  0  0  0  0  0
  -52.6419    8.9529   19.5151 C   0  0  0  0  0  0  0  0  0  0  0  0
  -54.0867    8.6958   19.2763 N   0  0  0  0  0  0  0  0  0  0  0  0
  -54.5665    9.4228   18.0875 C   0  0  0  0  0  0  0  0  0  0  0  0
  -56.0761    9.2628   17.8999 C   0  0  0  0  0  0  0  0  0  0  0  0
  -56.4603    7.7954   17.7826 C   0  0  0  0  0  0  0  0  0  0  0  0
  -55.8920    7.0118   18.9561 C   0  0  0  0  0  0  0  0  0  0  0  0
  -54.3902    7.2592   19.1286 C   0  0  0  0  0  0  0  0  0  0  0  0
  1  2  1  0
  2  3  1  0
  3  4  1  0
  4  5  2  0
  4  6  1  0
  6  7  1  0
  7  8  1  0
  8  9  2  0
  9 10  1  0
 10 11  2  0
 11 12  1  0
 12 13  2  0
 13 14  1  0
 14 15  1  0
 15 16  1  0
 16 17  2  0
 16 18  1  0
 18 19  1  0
 19 20  1  0
 20 21  1  0
 21 22  1  0
 22 23  1  0
 23 24  1  0
 24 25  1  0
 25 26  1  0
 13  8  1  0
 20 14  1  0
 26 21  1  0
M  END
$$$$
