
     RDKit          3D

 19 20  0  0  0  0  0  0  0  0999 V2000
   15.7431  -17.0545   13.9633 C   0  0  0  0  0  0  0  0  0  0  0  0
   15.4863  -17.9671   12.8826 N   0  0  0  0  0  0  0  0  0  0  0  0
   16.5284  -18.5571   12.1990 C   0  0  0  0  0  0  0  0  0  0  0  0
   17.7069  -18.2451   12.3458 O   0  0  0  0  0  0  0  0  0  0  0  0
   16.0772  -19.6278   11.2265 C   0  0  0  0  0  0  0  0  0  0  0  0
   15.9202  -20.9847   11.8765 C   0  0  0  0  0  0  0  0  0  0  0  0
   16.9658  -21.9143   11.7301 C   0  0  0  0  0  0  0  0  0  0  0  0
   16.8809  -23.1906   12.2880 C   0  0  0  0  0  0  0  0  0  0  0  0
   15.7441  -23.5601   12.9966 C   0  0  0  0  0  0  0  0  0  0  0  0
   15.5169  -24.7798   13.5747 O   0  0  0  0  0  0  0  0  0  0  0  0
   16.5544  -25.7461   13.4623 C   0  0  0  0  0  0  0  0  0  0  0  0
   14.7067  -22.6346   13.1583 C   0  0  0  0  0  0  0  0  0  0  0  0
   14.7795  -21.3308   12.6347 C   0  0  0  0  0  0  0  0  0  0  0  0
   13.7324  -20.3901   12.8041 N   0  0  0  0  0  0  0  0  0  0  0  0
   12.6932  -20.5730   11.7764 C   0  0  0  0  0  0  0  0  0  0  0  0
   11.8596  -19.2914   11.6910 C   0  0  0  0  0  0  0  0  0  0  0  0
   11.6442  -18.6202   13.0507 C   0  0  0  0  0  0  0  0  0  0  0  0
   11.8170  -19.6056   14.1988 C   0  0  0  0  0  0  0  0  0  0  0  0
   13.1916  -20.2890   14.1823 C   0  0  0  0  0  0  0  0  0  0  0  0
  1  2  1  0
  2  3  1  0
  3  4  2  0
  3  5  1  0
  5  6  1  0
  6  7  2  0
  7  8  1  0
  8  9  2  0
  9 10  1  0
 10 11  1  0
  9 12  1  0
 12 13  2  0
 13 14  1  0
 14 15  1  0
 15 16  1  0
 16 17  1  0
 17 18  1  0
 18 19  1  0
 13  6  1  0
 19 14  1  0
M  END
$$$$
