
     RDKit          3D

 19 20  0  0  0  0  0  0  0  0999 V2000
  -12.1045   -2.4096   16.3821 N   0  0  0  0  0  0  0  0  0  0  0  0
  -11.5974   -2.9272   15.1167 C   0  0  0  0  0  0  0  0  0  0  0  0
  -11.5674   -1.8483   14.0445 C   0  0  0  0  0  0  0  0  0  0  0  0
  -12.9594   -1.4678   13.5842 C   0  0  0  0  0  0  0  0  0  0  0  0
  -13.7162   -2.2880   13.0606 O   0  0  0  0  0  0  0  0  0  0  0  0
  -13.3881   -0.0408   13.7741 C   0  0  0  0  0  0  0  0  0  0  0  0
  -13.8238    0.2663   15.1798 C   0  0  0  0  0  0  0  0  0  0  0  0
  -13.0303    0.7423   15.9948 O   0  0  0  0  0  0  0  0  0  0  0  0
  -15.2540   -0.0496   15.5565 C   0  0  0  0  0  0  0  0  0  0  0  0
  -15.3461   -1.3555   16.3316 C   0  0  0  0  0  0  0  0  0  0  0  0
  -16.7664   -1.7419   16.5963 C   0  0  0  0  0  0  0  0  0  0  0  0
  -17.5130   -1.4220   17.7130 C   0  0  0  0  0  0  0  0  0  0  0  0
  -18.7633   -1.9583   17.5614 N   0  0  0  0  0  0  0  0  0  0  0  0
  -18.8550   -2.6233   16.3612 C   0  0  0  0  0  0  0  0  0  0  0  0
  -19.9319   -3.3123   15.7903 C   0  0  0  0  0  0  0  0  0  0  0  0
  -19.7327   -3.9026   14.5387 C   0  0  0  0  0  0  0  0  0  0  0  0
  -18.5055   -3.8065   13.8871 C   0  0  0  0  0  0  0  0  0  0  0  0
  -17.4393   -3.1138   14.4720 C   0  0  0  0  0  0  0  0  0  0  0  0
  -17.6145   -2.5088   15.7338 C   0  0  0  0  0  0  0  0  0  0  0  0
  1  2  1  0
  2  3  1  0
  3  4  1  0
  4  5  2  0
  4  6  1  0
  6  7  1  0
  7  8  2  0
  7  9  1  0
  9 10  1  0
 10 11  1  0
 11 12  2  0
 12 13  1  0
 13 14  1  0
 14 15  2  0
 15 16  1  0
 16 17  2  0
 17 18  1  0
 18 19  2  0
 19 11  1  0
 19 14  1  0
M  END
$$$$
