
     RDKit          3D

 23 25  0  0  0  0  0  0  0  0999 V2000
   25.7184  -30.1736  -30.7197 N   0  0  0  0  0  0  0  0  0  0  0  0
   26.1417  -30.8938  -29.6343 C   0  0  0  0  0  0  0  0  0  0  0  0
   26.6442  -32.0046  -29.7705 O   0  0  0  0  0  0  0  0  0  0  0  0
   25.9093  -30.3118  -28.2766 C   0  0  0  0  0  0  0  0  0  0  0  0
   25.7951  -31.2538  -27.2301 C   0  0  0  0  0  0  0  0  0  0  0  0
   25.5629  -30.8435  -25.9189 C   0  0  0  0  0  0  0  0  0  0  0  0
   25.4466  -29.4886  -25.6494 C   0  0  0  0  0  0  0  0  0  0  0  0
   25.2347  -29.0822  -24.3905 F   0  0  0  0  0  0  0  0  0  0  0  0
   25.5711  -28.5369  -26.6612 C   0  0  0  0  0  0  0  0  0  0  0  0
   25.8114  -28.9224  -27.9979 C   0  0  0  0  0  0  0  0  0  0  0  0
   25.9815  -27.9395  -29.0140 N   0  0  0  0  0  0  0  0  0  0  0  0
   24.7618  -27.0826  -29.1017 C   0  0  0  0  0  0  0  0  0  0  0  0
   24.8637  -26.0942  -30.2505 C   0  0  0  0  0  0  0  0  0  0  0  0
   23.8949  -25.8250  -30.9622 O   0  0  0  0  0  0  0  0  0  0  0  0
   26.1630  -25.3352  -30.3568 C   0  0  0  0  0  0  0  0  0  0  0  0
   27.3376  -26.2915  -30.2087 C   0  0  0  0  0  0  0  0  0  0  0  0
   27.2489  -27.1499  -28.9079 C   0  0  0  0  0  0  0  0  0  0  0  0
   28.5988  -27.7134  -28.7027 N   0  0  0  0  0  0  0  0  0  0  0  0
   29.0200  -28.7312  -29.6720 C   0  0  0  0  0  0  0  0  0  0  0  0
   30.5263  -29.0047  -29.5510 C   0  0  0  0  0  0  0  0  0  0  0  0
   30.9283  -29.3732  -28.1267 C   0  0  0  0  0  0  0  0  0  0  0  0
   30.3727  -28.3601  -27.1290 C   0  0  0  0  0  0  0  0  0  0  0  0
   28.8695  -28.1578  -27.3348 C   0  0  0  0  0  0  0  0  0  0  0  0
  1  2  1  0
  2  3  2  0
  2  4  1  0
  4  5  2  0
  5  6  1  0
  6  7  2  0
  7  8  1  0
  7  9  1  0
  9 10  2  0
 10 11  1  0
 11 12  1  0
 12 13  1  0
 13 14  2  0
 13 15  1  0
 15 16  1  0
 16 17  1  0
 17 18  1  0
 18 19  1  0
 19 20  1  0
 20 21  1  0
 21 22  1  0
 22 23  1  0
 10  4  1  0
 17 11  1  0
 23 18  1  0
M  END
$$$$
