
     RDKit          3D

 32 35  0  0  0  0  0  0  0  0999 V2000
   20.4432    3.1633   -6.0415 N   0  0  0  0  0  0  0  0  0  0  0  0
   21.2780    4.2985   -5.6388 C   0  0  0  0  0  0  0  0  0  0  0  0
   20.4369    5.4247   -5.0807 C   0  0  0  0  0  0  0  0  0  0  0  0
   19.6957    5.1835   -3.9037 C   0  0  0  0  0  0  0  0  0  0  0  0
   18.9228    6.1837   -3.3219 C   0  0  0  0  0  0  0  0  0  0  0  0
   18.8804    7.4345   -3.9264 C   0  0  0  0  0  0  0  0  0  0  0  0
   17.8985    8.7250   -3.2180 S   0  0  0  0  0  0  0  0  0  0  0  0
   16.4271    8.4900   -4.0101 N   0  0  0  0  0  0  0  0  0  0  0  0
   18.4320    9.9985   -3.6400 O   0  0  0  0  0  0  0  0  0  0  0  0
   17.6485    8.4089   -1.8308 O   0  0  0  0  0  0  0  0  0  0  0  0
   19.6079    7.6966   -5.0911 C   0  0  0  0  0  0  0  0  0  0  0  0
   20.3963    6.6999   -5.6860 C   0  0  0  0  0  0  0  0  0  0  0  0
   21.1409    6.9600   -6.8474 N   0  0  0  0  0  0  0  0  0  0  0  0
   20.3287    7.2659   -8.0348 C   0  0  0  0  0  0  0  0  0  0  0  0
   21.0496    8.2086   -8.9881 C   0  0  0  0  0  0  0  0  0  0  0  0
   21.4713    9.4793   -8.2600 C   0  0  0  0  0  0  0  0  0  0  0  0
   22.1718    9.1967   -6.9241 C   0  0  0  0  0  0  0  0  0  0  0  0
   22.4170    7.6888   -6.6660 C   0  0  0  0  0  0  0  0  0  0  0  0
   23.1511    7.4928   -5.4139 N   0  0  0  0  0  0  0  0  0  0  0  0
   24.6010    7.3556   -5.5218 C   0  0  0  0  0  0  0  0  0  0  0  0
   25.3552    8.6454   -5.9006 C   0  0  0  0  0  0  0  0  0  0  0  0
   26.8114    8.5713   -5.8120 N   0  0  0  0  0  0  0  0  0  0  0  0
   27.3021    8.5554   -4.4378 C   0  0  0  0  0  0  0  0  0  0  0  0
   28.7863    8.7329   -4.4908 C   0  0  0  0  0  0  0  0  0  0  0  0
   29.4582    9.9242   -4.6998 C   0  0  0  0  0  0  0  0  0  0  0  0
   30.8010    9.6733   -4.6934 N   0  0  0  0  0  0  0  0  0  0  0  0
   31.0340    8.3360   -4.4736 C   0  0  0  0  0  0  0  0  0  0  0  0
   32.2444    7.6377   -4.3861 C   0  0  0  0  0  0  0  0  0  0  0  0
   32.1821    6.2602   -4.1565 C   0  0  0  0  0  0  0  0  0  0  0  0
   30.9580    5.6107   -4.0212 C   0  0  0  0  0  0  0  0  0  0  0  0
   29.7569    6.3248   -4.1116 C   0  0  0  0  0  0  0  0  0  0  0  0
   29.7896    7.7178   -4.3414 C   0  0  0  0  0  0  0  0  0  0  0  0
  1  2  1  0
  2  3  1  0
  3  4  2  0
  4  5  1  0
  5  6  2  0
  6  7  1  0
  7  8  1  0
  7  9  2  0
  7 10  2  0
  6 11  1  0
 11 12  2  0
 12 13  1  0
 13 14  1  0
 14 15  1  0
 15 16  1  0
 16 17  1  0
 17 18  1  0
 18 19  1  0
 19 20  1  0
 20 21  1  0
 21 22  1  0
 22 23  1  0
 23 24  1  0
 24 25  2  0
 25 26  1  0
 26 27  1  0
 27 28  2  0
 28 29  1  0
 29 30  2  0
 30 31  1  0
 31 32  2  0
 12  3  1  0
 18 13  1  0
 32 24  1  0
 32 27  1  0
M  END
$$$$
