
     RDKit          3D

 16 17  0  0  0  0  0  0  0  0999 V2000
   26.3028   -7.7444  -17.0458 N   0  0  0  0  0  0  0  0  0  0  0  0
   26.8644   -8.8352  -16.2606 C   0  0  0  0  0  0  0  0  0  0  0  0
   25.7680   -9.5228  -15.4502 C   0  0  0  0  0  0  0  0  0  0  0  0
   26.3505  -10.6050  -14.5501 C   0  0  0  0  0  0  0  0  0  0  0  0
   25.2830  -11.4935  -13.9419 C   0  0  0  0  0  0  0  0  0  0  0  0
   25.2343  -12.6931  -14.2290 O   0  0  0  0  0  0  0  0  0  0  0  0
   24.3073  -10.8692  -12.9612 C   0  0  0  0  0  0  0  0  0  0  0  0
   23.0015  -10.5258  -13.5992 C   0  0  0  0  0  0  0  0  0  0  0  0
   22.1346  -11.4117  -14.2113 C   0  0  0  0  0  0  0  0  0  0  0  0
   21.0497  -10.7153  -14.6659 N   0  0  0  0  0  0  0  0  0  0  0  0
   21.1773   -9.3827  -14.3546 C   0  0  0  0  0  0  0  0  0  0  0  0
   20.3150   -8.3112  -14.6174 C   0  0  0  0  0  0  0  0  0  0  0  0
   20.7029   -7.0433  -14.1766 C   0  0  0  0  0  0  0  0  0  0  0  0
   21.9046   -6.8577  -13.4989 C   0  0  0  0  0  0  0  0  0  0  0  0
   22.7543   -7.9406  -13.2433 C   0  0  0  0  0  0  0  0  0  0  0  0
   22.3897   -9.2317  -13.6799 C   0  0  0  0  0  0  0  0  0  0  0  0
  1  2  1  0
  2  3  1  0
  3  4  1  0
  4  5  1  0
  5  6  2  0
  5  7  1  0
  7  8  1  0
  8  9  2  0
  9 10  1  0
 10 11  1  0
 11 12  2  0
 12 13  1  0
 13 14  2  0
 14 15  1  0
 15 16  2  0
 16  8  1  0
 16 11  1  0
M  END
$$$$
