
     RDKit          3D

 16 17  0  0  0  0  0  0  0  0999 V2000
    1.6239   14.6977  -11.3603 N   0  0  0  0  0  0  0  0  0  0  0  0
    2.1855   13.6069  -10.5751 C   0  0  0  0  0  0  0  0  0  0  0  0
    1.0891   12.9193   -9.7647 C   0  0  0  0  0  0  0  0  0  0  0  0
    1.6716   11.8371   -8.8646 C   0  0  0  0  0  0  0  0  0  0  0  0
    0.6041   10.9486   -8.2564 C   0  0  0  0  0  0  0  0  0  0  0  0
    0.5554    9.7489   -8.5435 O   0  0  0  0  0  0  0  0  0  0  0  0
   -0.3716   11.5729   -7.2757 C   0  0  0  0  0  0  0  0  0  0  0  0
   -1.6774   11.9163   -7.9137 C   0  0  0  0  0  0  0  0  0  0  0  0
   -2.5443   11.0304   -8.5257 C   0  0  0  0  0  0  0  0  0  0  0  0
   -3.6292   11.7267   -8.9804 N   0  0  0  0  0  0  0  0  0  0  0  0
   -3.5017   13.0594   -8.6691 C   0  0  0  0  0  0  0  0  0  0  0  0
   -4.3639   14.1309   -8.9319 C   0  0  0  0  0  0  0  0  0  0  0  0
   -3.9760   15.3988   -8.4910 C   0  0  0  0  0  0  0  0  0  0  0  0
   -2.7743   15.5844   -7.8134 C   0  0  0  0  0  0  0  0  0  0  0  0
   -1.9246   14.5015   -7.5577 C   0  0  0  0  0  0  0  0  0  0  0  0
   -2.2892   13.2104   -7.9944 C   0  0  0  0  0  0  0  0  0  0  0  0
  1  2  1  0
  2  3  1  0
  3  4  1  0
  4  5  1  0
  5  6  2  0
  5  7  1  0
  7  8  1  0
  8  9  2  0
  9 10  1  0
 10 11  1  0
 11 12  2  0
 12 13  1  0
 13 14  2  0
 14 15  1  0
 15 16  2  0
 16  8  1  0
 16 11  1  0
M  END
$$$$
