
     RDKit          3D

 26 29  0  0  0  0  0  0  0  0999 V2000
   79.6762   -0.7293  -60.4587 N   0  0  0  0  0  0  0  0  0  0  0  0
   79.6021   -0.1564  -59.1002 C   0  0  0  0  0  0  0  0  0  0  0  0
   78.6745   -0.9812  -58.2030 C   0  0  0  0  0  0  0  0  0  0  0  0
   77.2273   -0.8371  -58.6228 C   0  0  0  0  0  0  0  0  0  0  0  0
   76.4195   -1.7510  -58.4575 O   0  0  0  0  0  0  0  0  0  0  0  0
   76.8115    0.4666  -59.2669 C   0  0  0  0  0  0  0  0  0  0  0  0
   77.7160    1.5885  -58.7933 C   0  0  0  0  0  0  0  0  0  0  0  0
   79.1962    1.3446  -59.1215 C   0  0  0  0  0  0  0  0  0  0  0  0
   79.9888    2.0213  -58.1234 O   0  0  0  0  0  0  0  0  0  0  0  0
   80.3089    3.3727  -58.5812 N   0  0  0  0  0  0  0  0  0  0  0  0
   79.7224    4.2862  -57.5883 C   0  0  0  0  0  0  0  0  0  0  0  0
   80.2825    4.1209  -56.1756 C   0  0  0  0  0  0  0  0  0  0  0  0
   81.8000    4.2365  -56.1724 C   0  0  0  0  0  0  0  0  0  0  0  0
   82.4210    3.2939  -57.1985 C   0  0  0  0  0  0  0  0  0  0  0  0
   81.7951    3.4804  -58.5965 C   0  0  0  0  0  0  0  0  0  0  0  0
   82.4198    2.5101  -59.6342 C   0  0  0  0  0  0  0  0  0  0  0  0
   83.7913    2.8849  -59.9712 N   0  0  0  0  0  0  0  0  0  0  0  0
   84.8212    2.1717  -59.4847 C   0  0  0  0  0  0  0  0  0  0  0  0
   84.8117    1.2060  -58.5975 N   0  0  0  0  0  0  0  0  0  0  0  0
   86.1227    0.8263  -58.4488 C   0  0  0  0  0  0  0  0  0  0  0  0
   86.6844   -0.1633  -57.6294 C   0  0  0  0  0  0  0  0  0  0  0  0
   88.0711   -0.3575  -57.6652 C   0  0  0  0  0  0  0  0  0  0  0  0
   88.8818    0.4196  -58.4973 C   0  0  0  0  0  0  0  0  0  0  0  0
   88.3399    1.4135  -59.3211 C   0  0  0  0  0  0  0  0  0  0  0  0
   86.9548    1.5826  -59.2658 C   0  0  0  0  0  0  0  0  0  0  0  0
   86.0964    2.4338  -59.9113 N   0  0  0  0  0  0  0  0  0  0  0  0
  1  2  1  0
  2  3  1  0
  3  4  1  0
  4  5  2  0
  4  6  1  0
  6  7  1  0
  7  8  1  0
  8  9  1  0
  9 10  1  0
 10 11  1  0
 11 12  1  0
 12 13  1  0
 13 14  1  0
 14 15  1  0
 15 16  1  0
 16 17  1  0
 17 18  1  0
 18 19  2  0
 19 20  1  0
 20 21  2  0
 21 22  1  0
 22 23  2  0
 23 24  1  0
 24 25  2  0
 25 26  1  0
  8  2  1  0
 15 10  1  0
 26 18  1  0
 25 20  1  0
M  END
$$$$
