
     RDKit          3D

 19 20  0  0  0  0  0  0  0  0999 V2000
   -4.6280  -12.8457   -1.1353 N   0  0  0  0  0  0  0  0  0  0  0  0
   -4.1210  -13.3633   -2.4008 C   0  0  0  0  0  0  0  0  0  0  0  0
   -4.0910  -12.2844   -3.4730 C   0  0  0  0  0  0  0  0  0  0  0  0
   -5.4830  -11.9039   -3.9332 C   0  0  0  0  0  0  0  0  0  0  0  0
   -6.2398  -12.7242   -4.4569 O   0  0  0  0  0  0  0  0  0  0  0  0
   -5.9117  -10.4769   -3.7434 C   0  0  0  0  0  0  0  0  0  0  0  0
   -6.3474  -10.1698   -2.3376 C   0  0  0  0  0  0  0  0  0  0  0  0
   -5.5539   -9.6938   -1.5226 O   0  0  0  0  0  0  0  0  0  0  0  0
   -7.7776  -10.4857   -1.9609 C   0  0  0  0  0  0  0  0  0  0  0  0
   -7.8696  -11.7916   -1.1858 C   0  0  0  0  0  0  0  0  0  0  0  0
   -9.2899  -12.1780   -0.9211 C   0  0  0  0  0  0  0  0  0  0  0  0
  -10.0366  -11.8581    0.1956 C   0  0  0  0  0  0  0  0  0  0  0  0
  -11.2868  -12.3944    0.0440 N   0  0  0  0  0  0  0  0  0  0  0  0
  -11.3786  -13.0595   -1.1562 C   0  0  0  0  0  0  0  0  0  0  0  0
  -12.4555  -13.7484   -1.7271 C   0  0  0  0  0  0  0  0  0  0  0  0
  -12.2563  -14.3387   -2.9788 C   0  0  0  0  0  0  0  0  0  0  0  0
  -11.0291  -14.2427   -3.6304 C   0  0  0  0  0  0  0  0  0  0  0  0
   -9.9629  -13.5499   -3.0454 C   0  0  0  0  0  0  0  0  0  0  0  0
  -10.1381  -12.9449   -1.7836 C   0  0  0  0  0  0  0  0  0  0  0  0
  1  2  1  0
  2  3  1  0
  3  4  1  0
  4  5  2  0
  4  6  1  0
  6  7  1  0
  7  8  2  0
  7  9  1  0
  9 10  1  0
 10 11  1  0
 11 12  2  0
 12 13  1  0
 13 14  1  0
 14 15  2  0
 15 16  1  0
 16 17  2  0
 17 18  1  0
 18 19  2  0
 19 11  1  0
 19 14  1  0
M  END
$$$$
