
     RDKit          3D

 31 34  0  0  0  0  0  0  0  0999 V2000
  -30.2655   -9.8949   18.5839 N   0  0  0  0  0  0  0  0  0  0  0  0
  -29.7391  -10.5521   20.0372 S   0  0  0  0  0  0  0  0  0  0  0  0
  -28.6152   -9.7636   20.4853 O   0  0  0  0  0  0  0  0  0  0  0  0
  -30.9397  -10.6744   20.8365 O   0  0  0  0  0  0  0  0  0  0  0  0
  -29.1955  -12.1731   19.5857 C   0  0  0  0  0  0  0  0  0  0  0  0
  -29.8903  -13.2630   20.1260 C   0  0  0  0  0  0  0  0  0  0  0  0
  -29.4415  -14.5351   19.8309 C   0  0  0  0  0  0  0  0  0  0  0  0
  -28.3697  -14.7823   19.0530 N   0  0  0  0  0  0  0  0  0  0  0  0
  -27.7246  -13.7072   18.5421 C   0  0  0  0  0  0  0  0  0  0  0  0
  -28.0743  -12.3689   18.7656 C   0  0  0  0  0  0  0  0  0  0  0  0
  -27.3566  -11.2912   18.1993 N   0  0  0  0  0  0  0  0  0  0  0  0
  -27.6508  -11.2090   16.7449 C   0  0  0  0  0  0  0  0  0  0  0  0
  -26.9885   -9.9822   16.1403 C   0  0  0  0  0  0  0  0  0  0  0  0
  -27.5620   -9.2555   15.3298 O   0  0  0  0  0  0  0  0  0  0  0  0
  -25.5335   -9.7840   16.4851 C   0  0  0  0  0  0  0  0  0  0  0  0
  -25.3314   -9.9260   17.9851 C   0  0  0  0  0  0  0  0  0  0  0  0
  -25.8928  -11.2641   18.5171 C   0  0  0  0  0  0  0  0  0  0  0  0
  -25.5865  -11.3649   20.0484 C   0  0  0  0  0  0  0  0  0  0  0  0
  -24.1786  -11.7121   20.3223 N   0  0  0  0  0  0  0  0  0  0  0  0
  -23.7712  -12.9982   19.8799 C   0  0  0  0  0  0  0  0  0  0  0  0
  -24.4464  -14.1538   20.2699 C   0  0  0  0  0  0  0  0  0  0  0  0
  -24.0279  -15.3702   19.7598 C   0  0  0  0  0  0  0  0  0  0  0  0
  -22.9938  -15.5132   18.9075 N   0  0  0  0  0  0  0  0  0  0  0  0
  -22.3312  -14.3821   18.5677 C   0  0  0  0  0  0  0  0  0  0  0  0
  -22.6567  -13.1000   19.0148 C   0  0  0  0  0  0  0  0  0  0  0  0
  -21.9503  -11.9211   18.6607 N   0  0  0  0  0  0  0  0  0  0  0  0
  -20.9307  -11.6036   19.6928 C   0  0  0  0  0  0  0  0  0  0  0  0
  -19.8277  -10.6925   19.1370 C   0  0  0  0  0  0  0  0  0  0  0  0
  -20.3746   -9.7090   18.1098 C   0  0  0  0  0  0  0  0  0  0  0  0
  -21.0765  -10.4250   16.9514 C   0  0  0  0  0  0  0  0  0  0  0  0
  -21.4514  -11.8724   17.2821 C   0  0  0  0  0  0  0  0  0  0  0  0
  1  2  1  0
  2  3  2  0
  2  4  2  0
  2  5  1  0
  5  6  2  0
  6  7  1  0
  7  8  2  0
  8  9  1  0
  9 10  2  0
 10 11  1  0
 11 12  1  0
 12 13  1  0
 13 14  2  0
 13 15  1  0
 15 16  1  0
 16 17  1  0
 17 18  1  0
 18 19  1  0
 19 20  1  0
 20 21  2  0
 21 22  1  0
 22 23  2  0
 23 24  1  0
 24 25  2  0
 25 26  1  0
 26 27  1  0
 27 28  1  0
 28 29  1  0
 29 30  1  0
 30 31  1  0
 10  5  1  0
 17 11  1  0
 25 20  1  0
 31 26  1  0
M  END
$$$$
