
     RDKit          3D

 19 20  0  0  0  0  0  0  0  0999 V2000
  -10.3698   -8.5281   -1.9257 C   0  0  0  0  0  0  0  0  0  0  0  0
  -11.3930   -9.4773   -2.3540 N   0  0  0  0  0  0  0  0  0  0  0  0
  -11.4921  -10.6377   -1.4642 C   0  0  0  0  0  0  0  0  0  0  0  0
  -11.9451  -10.3344   -0.0392 C   0  0  0  0  0  0  0  0  0  0  0  0
  -13.1831   -9.4591    0.0515 C   0  0  0  0  0  0  0  0  0  0  0  0
  -13.1641   -8.4562    0.7739 O   0  0  0  0  0  0  0  0  0  0  0  0
  -14.4297   -9.8868   -0.7397 C   0  0  0  0  0  0  0  0  0  0  0  0
  -15.6061   -8.9554   -0.3982 C   0  0  0  0  0  0  0  0  0  0  0  0
  -16.7463   -9.0313   -1.3731 C   0  0  0  0  0  0  0  0  0  0  0  0
  -16.7979   -8.4293   -2.6163 C   0  0  0  0  0  0  0  0  0  0  0  0
  -18.0076   -8.7199   -3.1861 N   0  0  0  0  0  0  0  0  0  0  0  0
  -18.7548   -9.5075   -2.3425 C   0  0  0  0  0  0  0  0  0  0  0  0
  -20.0379  -10.0428   -2.5087 C   0  0  0  0  0  0  0  0  0  0  0  0
  -20.5576  -10.8160   -1.4665 C   0  0  0  0  0  0  0  0  0  0  0  0
  -19.8220  -11.0427   -0.3061 C   0  0  0  0  0  0  0  0  0  0  0  0
  -18.5411  -10.4988   -0.1564 C   0  0  0  0  0  0  0  0  0  0  0  0
  -17.9929   -9.7143   -1.1922 C   0  0  0  0  0  0  0  0  0  0  0  0
  -14.7099  -11.2387   -0.3431 O   0  0  0  0  0  0  0  0  0  0  0  0
  -15.1504  -12.0602   -1.4165 C   0  0  0  0  0  0  0  0  0  0  0  0
  1  2  1  0
  2  3  1  0
  3  4  1  0
  4  5  1  0
  5  6  2  0
  5  7  1  0
  7  8  1  0
  8  9  1  0
  9 10  2  0
 10 11  1  0
 11 12  1  0
 12 13  2  0
 13 14  1  0
 14 15  2  0
 15 16  1  0
 16 17  2  0
  7 18  1  0
 18 19  1  0
 17  9  1  0
 17 12  1  0
M  END
$$$$
