
     RDKit          3D

 16 17  0  0  0  0  0  0  0  0999 V2000
   41.4759   -2.5196   25.4853 C   0  0  0  0  0  0  0  0  0  0  0  0
   40.0682   -2.7172   25.5047 O   0  0  0  0  0  0  0  0  0  0  0  0
   39.3379   -1.8726   26.2944 C   0  0  0  0  0  0  0  0  0  0  0  0
   39.8410   -0.8474   27.0817 C   0  0  0  0  0  0  0  0  0  0  0  0
   38.9668   -0.0583   27.8344 C   0  0  0  0  0  0  0  0  0  0  0  0
   37.5685   -0.2589   27.8132 C   0  0  0  0  0  0  0  0  0  0  0  0
   36.6954    0.6454   28.6544 C   0  0  0  0  0  0  0  0  0  0  0  0
   37.1894    2.0238   28.7431 N   0  0  0  0  0  0  0  0  0  0  0  0
   37.0578   -1.3295   27.0502 C   0  0  0  0  0  0  0  0  0  0  0  0
   35.7143   -1.7148   26.9664 N   0  0  0  0  0  0  0  0  0  0  0  0
   35.0439   -2.0953   28.2104 C   0  0  0  0  0  0  0  0  0  0  0  0
   33.8040   -2.9243   27.8721 C   0  0  0  0  0  0  0  0  0  0  0  0
   32.8922   -2.1788   26.8977 C   0  0  0  0  0  0  0  0  0  0  0  0
   33.6616   -1.7543   25.6471 C   0  0  0  0  0  0  0  0  0  0  0  0
   34.9140   -0.9523   26.0046 C   0  0  0  0  0  0  0  0  0  0  0  0
   37.9607   -2.1025   26.2894 C   0  0  0  0  0  0  0  0  0  0  0  0
  1  2  1  0
  2  3  1  0
  3  4  2  0
  4  5  1  0
  5  6  2  0
  6  7  1  0
  7  8  1  0
  6  9  1  0
  9 10  1  0
 10 11  1  0
 11 12  1  0
 12 13  1  0
 13 14  1  0
 14 15  1  0
  9 16  2  0
 16  3  1  0
 15 10  1  0
M  END
$$$$
