
     RDKit          3D

 22 24  0  0  0  0  0  0  0  0999 V2000
   77.5966    0.2225    9.3534 N   0  0  0  0  0  0  0  0  0  0  0  0
   77.5659   -0.3933    8.0185 C   0  0  0  0  0  0  0  0  0  0  0  0
   78.9592   -0.3875    7.4068 C   0  0  0  0  0  0  0  0  0  0  0  0
   79.7343    0.5623    7.5214 O   0  0  0  0  0  0  0  0  0  0  0  0
   79.3410   -1.5210    6.5429 C   0  0  0  0  0  0  0  0  0  0  0  0
   79.4385   -1.2342    5.1768 C   0  0  0  0  0  0  0  0  0  0  0  0
   79.8263   -2.2495    4.3275 C   0  0  0  0  0  0  0  0  0  0  0  0
   80.1196   -3.4936    4.7491 N   0  0  0  0  0  0  0  0  0  0  0  0
   80.0422   -3.7239    6.0838 C   0  0  0  0  0  0  0  0  0  0  0  0
   79.6637   -2.7903    7.0540 C   0  0  0  0  0  0  0  0  0  0  0  0
   79.6311   -3.0863    8.4295 N   0  0  0  0  0  0  0  0  0  0  0  0
   78.4236   -3.8092    8.8595 C   0  0  0  0  0  0  0  0  0  0  0  0
   78.5321   -5.3177    8.6652 C   0  0  0  0  0  0  0  0  0  0  0  0
   79.8894   -5.8728    9.0723 C   0  0  0  0  0  0  0  0  0  0  0  0
   80.7134   -4.8482    9.8398 C   0  0  0  0  0  0  0  0  0  0  0  0
   80.9303   -3.5254    9.0416 C   0  0  0  0  0  0  0  0  0  0  0  0
   81.6403   -2.6056    9.9633 N   0  0  0  0  0  0  0  0  0  0  0  0
   81.4899   -1.1967    9.5636 C   0  0  0  0  0  0  0  0  0  0  0  0
   82.4713   -0.2363   10.2549 C   0  0  0  0  0  0  0  0  0  0  0  0
   82.9872   -0.8073   11.5657 C   0  0  0  0  0  0  0  0  0  0  0  0
   83.6382   -2.1715   11.3361 C   0  0  0  0  0  0  0  0  0  0  0  0
   83.0658   -2.9161   10.1209 C   0  0  0  0  0  0  0  0  0  0  0  0
  1  2  1  0
  2  3  1  0
  3  4  2  0
  3  5  1  0
  5  6  2  0
  6  7  1  0
  7  8  2  0
  8  9  1  0
  9 10  2  0
 10 11  1  0
 11 12  1  0
 12 13  1  0
 13 14  1  0
 14 15  1  0
 15 16  1  0
 16 17  1  0
 17 18  1  0
 18 19  1  0
 19 20  1  0
 20 21  1  0
 21 22  1  0
 10  5  1  0
 16 11  1  0
 22 17  1  0
M  END
$$$$
