
     RDKit          3D

 31 34  0  0  0  0  0  0  0  0999 V2000
   -5.6596   -6.8147    2.0072 C   0  0  0  0  0  0  0  0  0  0  0  0
   -5.5379   -7.8052    0.9980 O   0  0  0  0  0  0  0  0  0  0  0  0
   -5.1355   -9.0507    1.3966 C   0  0  0  0  0  0  0  0  0  0  0  0
   -4.8616   -9.4431    2.7033 C   0  0  0  0  0  0  0  0  0  0  0  0
   -4.4602  -10.7541    2.9687 C   0  0  0  0  0  0  0  0  0  0  0  0
   -4.3364  -11.6974    1.9334 C   0  0  0  0  0  0  0  0  0  0  0  0
   -3.9153  -13.1112    2.2852 C   0  0  0  0  0  0  0  0  0  0  0  0
   -4.8449  -14.2063    1.7967 C   0  0  0  0  0  0  0  0  0  0  0  0
   -6.1828  -14.0090    1.9981 N   0  0  0  0  0  0  0  0  0  0  0  0
   -4.4405  -15.2707    1.3331 O   0  0  0  0  0  0  0  0  0  0  0  0
   -4.5996  -11.3065    0.6028 C   0  0  0  0  0  0  0  0  0  0  0  0
   -4.4324  -12.2153   -0.4460 N   0  0  0  0  0  0  0  0  0  0  0  0
   -5.5528  -12.4029   -1.3789 C   0  0  0  0  0  0  0  0  0  0  0  0
   -5.1066  -12.4894   -2.8334 C   0  0  0  0  0  0  0  0  0  0  0  0
   -3.9926  -13.5133   -3.0348 C   0  0  0  0  0  0  0  0  0  0  0  0
   -2.9732  -13.5351   -1.8918 C   0  0  0  0  0  0  0  0  0  0  0  0
   -3.0675  -12.3083   -0.9798 C   0  0  0  0  0  0  0  0  0  0  0  0
   -2.7406  -11.1319   -1.7220 O   0  0  0  0  0  0  0  0  0  0  0  0
   -1.3888  -10.7145   -1.5168 C   0  0  0  0  0  0  0  0  0  0  0  0
   -1.2595   -9.8515   -0.2561 C   0  0  0  0  0  0  0  0  0  0  0  0
    0.1374   -9.6480    0.1143 N   0  0  0  0  0  0  0  0  0  0  0  0
    0.6189  -10.5754    1.0491 C   0  0  0  0  0  0  0  0  0  0  0  0
    0.2286  -11.8795    1.0111 N   0  0  0  0  0  0  0  0  0  0  0  0
    0.7232  -12.7353    1.9327 C   0  0  0  0  0  0  0  0  0  0  0  0
    1.5803  -12.4767    2.9403 N   0  0  0  0  0  0  0  0  0  0  0  0
    1.9348  -11.1854    2.9343 C   0  0  0  0  0  0  0  0  0  0  0  0
    2.7876  -10.5619    3.7968 N   0  0  0  0  0  0  0  0  0  0  0  0
    2.8670   -9.2485    3.4251 C   0  0  0  0  0  0  0  0  0  0  0  0
    2.1073   -8.9859    2.3825 N   0  0  0  0  0  0  0  0  0  0  0  0
    1.5257  -10.1975    2.0578 C   0  0  0  0  0  0  0  0  0  0  0  0
   -4.9986   -9.9808    0.3622 C   0  0  0  0  0  0  0  0  0  0  0  0
  1  2  1  0
  2  3  1  0
  3  4  2  0
  4  5  1  0
  5  6  2  0
  6  7  1  0
  7  8  1  0
  8  9  1  0
  8 10  2  0
  6 11  1  0
 11 12  1  0
 12 13  1  0
 13 14  1  0
 14 15  1  0
 15 16  1  0
 16 17  1  0
 17 18  1  0
 18 19  1  0
 19 20  1  0
 20 21  1  0
 21 22  1  0
 22 23  2  0
 23 24  1  0
 24 25  2  0
 25 26  1  0
 26 27  1  0
 27 28  1  0
 28 29  2  0
 29 30  1  0
 11 31  2  0
 31  3  1  0
 17 12  1  0
 30 22  1  0
 30 26  2  0
M  END
$$$$
