
     RDKit          3D

 20 21  0  0  0  0  0  0  0  0999 V2000
  -46.8436   31.9228   24.1164 N   0  0  0  0  0  0  0  0  0  0  0  0
  -46.8123   32.8691   23.0056 C   0  0  0  0  0  0  0  0  0  0  0  0
  -47.6437   32.3946   21.8098 C   0  0  0  0  0  0  0  0  0  0  0  0
  -49.1554   32.6590   21.8930 C   0  0  0  0  0  0  0  0  0  0  0  0
  -49.3994   34.0684   21.9048 O   0  0  0  0  0  0  0  0  0  0  0  0
  -49.8424   32.0294   23.1095 C   0  0  0  0  0  0  0  0  0  0  0  0
  -51.3624   32.2091   23.0974 C   0  0  0  0  0  0  0  0  0  0  0  0
  -52.0569   31.4158   22.0034 C   0  0  0  0  0  0  0  0  0  0  0  0
  -51.4843   30.5400   21.3536 O   0  0  0  0  0  0  0  0  0  0  0  0
  -53.5254   31.7022   21.7856 C   0  0  0  0  0  0  0  0  0  0  0  0
  -54.3692   30.8483   22.7213 C   0  0  0  0  0  0  0  0  0  0  0  0
  -55.8296   31.1293   22.5722 C   0  0  0  0  0  0  0  0  0  0  0  0
  -56.7183   30.4350   21.7750 C   0  0  0  0  0  0  0  0  0  0  0  0
  -57.9555   31.0033   21.9132 N   0  0  0  0  0  0  0  0  0  0  0  0
  -57.8977   32.0635   22.7869 C   0  0  0  0  0  0  0  0  0  0  0  0
  -58.9081   32.9296   23.2221 C   0  0  0  0  0  0  0  0  0  0  0  0
  -58.5552   33.9334   24.1285 C   0  0  0  0  0  0  0  0  0  0  0  0
  -57.2443   34.0631   24.5802 C   0  0  0  0  0  0  0  0  0  0  0  0
  -56.2464   33.1883   24.1348 C   0  0  0  0  0  0  0  0  0  0  0  0
  -56.5755   32.1667   23.2199 C   0  0  0  0  0  0  0  0  0  0  0  0
  1  2  1  0
  2  3  1  0
  3  4  1  0
  4  5  1  0
  4  6  1  0
  6  7  1  0
  7  8  1  0
  8  9  2  0
  8 10  1  0
 10 11  1  0
 11 12  1  0
 12 13  2  0
 13 14  1  0
 14 15  1  0
 15 16  2  0
 16 17  1  0
 17 18  2  0
 18 19  1  0
 19 20  2  0
 20 12  1  0
 20 15  1  0
M  END
$$$$
