
     RDKit          3D

 19 20  0  0  0  0  0  0  0  0999 V2000
   30.0599   16.7265  -35.2596 N   0  0  0  0  0  0  0  0  0  0  0  0
   29.4206   18.0413  -35.2712 C   0  0  0  0  0  0  0  0  0  0  0  0
   28.7706   18.3883  -33.9391 C   0  0  0  0  0  0  0  0  0  0  0  0
   27.4414   17.6870  -33.7462 C   0  0  0  0  0  0  0  0  0  0  0  0
   27.2835   16.8700  -32.8357 O   0  0  0  0  0  0  0  0  0  0  0  0
   26.3281   18.0162  -34.7264 C   0  0  0  0  0  0  0  0  0  0  0  0
   24.9507   17.8217  -34.1071 C   0  0  0  0  0  0  0  0  0  0  0  0
   24.6810   18.8181  -32.9931 C   0  0  0  0  0  0  0  0  0  0  0  0
   25.4145   19.7914  -32.8050 O   0  0  0  0  0  0  0  0  0  0  0  0
   23.4471   18.5733  -32.1447 C   0  0  0  0  0  0  0  0  0  0  0  0
   22.1968   18.8569  -32.9063 C   0  0  0  0  0  0  0  0  0  0  0  0
   21.6573   20.1040  -33.1479 C   0  0  0  0  0  0  0  0  0  0  0  0
   20.5177   19.9448  -33.8875 N   0  0  0  0  0  0  0  0  0  0  0  0
   20.3042   18.6163  -34.1507 C   0  0  0  0  0  0  0  0  0  0  0  0
   19.2789   17.9977  -34.8759 C   0  0  0  0  0  0  0  0  0  0  0  0
   19.3135   16.6021  -34.9908 C   0  0  0  0  0  0  0  0  0  0  0  0
   20.3335   15.8618  -34.4019 C   0  0  0  0  0  0  0  0  0  0  0  0
   21.3482   16.4964  -33.6749 C   0  0  0  0  0  0  0  0  0  0  0  0
   21.3378   17.9038  -33.5447 C   0  0  0  0  0  0  0  0  0  0  0  0
  1  2  1  0
  2  3  1  0
  3  4  1  0
  4  5  2  0
  4  6  1  0
  6  7  1  0
  7  8  1  0
  8  9  2  0
  8 10  1  0
 10 11  1  0
 11 12  2  0
 12 13  1  0
 13 14  1  0
 14 15  2  0
 15 16  1  0
 16 17  2  0
 17 18  1  0
 18 19  2  0
 19 11  1  0
 19 14  1  0
M  END
$$$$
