
     RDKit          3D

 19 20  0  0  0  0  0  0  0  0999 V2000
   18.6575    4.2711  -31.2786 C   0  0  0  0  0  0  0  0  0  0  0  0
   18.4008    3.3585  -32.3593 N   0  0  0  0  0  0  0  0  0  0  0  0
   19.4428    2.7685  -33.0429 C   0  0  0  0  0  0  0  0  0  0  0  0
   20.6213    3.0804  -32.8961 O   0  0  0  0  0  0  0  0  0  0  0  0
   18.9917    1.6978  -34.0154 C   0  0  0  0  0  0  0  0  0  0  0  0
   18.8346    0.3409  -33.3654 C   0  0  0  0  0  0  0  0  0  0  0  0
   19.8803   -0.5887  -33.5118 C   0  0  0  0  0  0  0  0  0  0  0  0
   19.7953   -1.8650  -32.9539 C   0  0  0  0  0  0  0  0  0  0  0  0
   18.6585   -2.2346  -32.2453 C   0  0  0  0  0  0  0  0  0  0  0  0
   18.4314   -3.4543  -31.6672 O   0  0  0  0  0  0  0  0  0  0  0  0
   19.4689   -4.4205  -31.7796 C   0  0  0  0  0  0  0  0  0  0  0  0
   17.6211   -1.3090  -32.0836 C   0  0  0  0  0  0  0  0  0  0  0  0
   17.6939   -0.0052  -32.6072 C   0  0  0  0  0  0  0  0  0  0  0  0
   16.6468    0.9355  -32.4378 N   0  0  0  0  0  0  0  0  0  0  0  0
   15.6077    0.7526  -33.4655 C   0  0  0  0  0  0  0  0  0  0  0  0
   14.7740    2.0341  -33.5509 C   0  0  0  0  0  0  0  0  0  0  0  0
   14.5586    2.7054  -32.1912 C   0  0  0  0  0  0  0  0  0  0  0  0
   14.7314    1.7199  -31.0431 C   0  0  0  0  0  0  0  0  0  0  0  0
   16.1060    1.0366  -31.0596 C   0  0  0  0  0  0  0  0  0  0  0  0
  1  2  1  0
  2  3  1  0
  3  4  2  0
  3  5  1  0
  5  6  1  0
  6  7  2  0
  7  8  1  0
  8  9  2  0
  9 10  1  0
 10 11  1  0
  9 12  1  0
 12 13  2  0
 13 14  1  0
 14 15  1  0
 15 16  1  0
 16 17  1  0
 17 18  1  0
 18 19  1  0
 13  6  1  0
 19 14  1  0
M  END
$$$$
