
     RDKit          3D

 18 19  0  0  0  0  0  0  0  0999 V2000
  -50.0747  -38.4349   61.6040 N   0  0  0  0  0  0  0  0  0  0  0  0
  -50.5893  -37.0761   61.7576 C   0  0  0  0  0  0  0  0  0  0  0  0
  -51.8230  -36.8104   60.9052 C   0  0  0  0  0  0  0  0  0  0  0  0
  -53.0430  -37.5065   61.4675 C   0  0  0  0  0  0  0  0  0  0  0  0
  -53.4495  -38.5653   60.9846 O   0  0  0  0  0  0  0  0  0  0  0  0
  -53.6988  -36.8971   62.6926 C   0  0  0  0  0  0  0  0  0  0  0  0
  -55.2200  -36.9605   62.5902 C   0  0  0  0  0  0  0  0  0  0  0  0
  -55.7550  -35.9992   61.5438 C   0  0  0  0  0  0  0  0  0  0  0  0
  -54.9800  -35.2559   60.9355 O   0  0  0  0  0  0  0  0  0  0  0  0
  -57.1976  -35.9500   61.2783 C   0  0  0  0  0  0  0  0  0  0  0  0
  -57.7437  -35.1156   60.3153 C   0  0  0  0  0  0  0  0  0  0  0  0
  -59.0964  -35.2867   60.2955 N   0  0  0  0  0  0  0  0  0  0  0  0
  -59.4678  -36.2179   61.2344 C   0  0  0  0  0  0  0  0  0  0  0  0
  -60.7460  -36.6932   61.5556 C   0  0  0  0  0  0  0  0  0  0  0  0
  -60.8512  -37.6537   62.5620 C   0  0  0  0  0  0  0  0  0  0  0  0
  -59.7190  -38.1189   63.2198 C   0  0  0  0  0  0  0  0  0  0  0  0
  -58.4477  -37.6328   62.8865 C   0  0  0  0  0  0  0  0  0  0  0  0
  -58.3021  -36.6592   61.8713 C   0  0  0  0  0  0  0  0  0  0  0  0
  1  2  1  0
  2  3  1  0
  3  4  1  0
  4  5  2  0
  4  6  1  0
  6  7  1  0
  7  8  1  0
  8  9  2  0
  8 10  1  0
 10 11  2  0
 11 12  1  0
 12 13  1  0
 13 14  2  0
 14 15  1  0
 15 16  2  0
 16 17  1  0
 17 18  2  0
 18 10  1  0
 18 13  1  0
M  END
$$$$
