
     RDKit          3D

 28 31  0  0  0  0  0  0  0  0999 V2000
  -50.9670  -59.2970  -10.9202 N   0  0  0  0  0  0  0  0  0  0  0  0
  -49.8572  -60.4071  -11.5537 S   0  0  0  0  0  0  0  0  0  0  0  0
  -48.6444  -60.1526  -10.8108 O   0  0  0  0  0  0  0  0  0  0  0  0
  -50.5769  -61.6594  -11.4984 O   0  0  0  0  0  0  0  0  0  0  0  0
  -49.6344  -59.8992  -13.2315 C   0  0  0  0  0  0  0  0  0  0  0  0
  -50.1350  -58.6552  -13.6357 C   0  0  0  0  0  0  0  0  0  0  0  0
  -50.0473  -58.3176  -14.9713 C   0  0  0  0  0  0  0  0  0  0  0  0
  -49.5132  -59.1238  -15.9057 N   0  0  0  0  0  0  0  0  0  0  0  0
  -49.0304  -60.3153  -15.4759 C   0  0  0  0  0  0  0  0  0  0  0  0
  -49.0377  -60.7713  -14.1535 C   0  0  0  0  0  0  0  0  0  0  0  0
  -48.4801  -61.9956  -13.7839 N   0  0  0  0  0  0  0  0  0  0  0  0
  -48.8317  -63.1665  -14.5966 C   0  0  0  0  0  0  0  0  0  0  0  0
  -48.5979  -64.4390  -13.7832 C   0  0  0  0  0  0  0  0  0  0  0  0
  -47.1846  -64.4955  -13.2070 C   0  0  0  0  0  0  0  0  0  0  0  0
  -46.8688  -63.2234  -12.4206 C   0  0  0  0  0  0  0  0  0  0  0  0
  -47.0848  -61.9482  -13.2599 C   0  0  0  0  0  0  0  0  0  0  0  0
  -46.0280  -61.7599  -14.3925 C   0  0  0  0  0  0  0  0  0  0  0  0
  -44.6456  -61.6983  -13.9056 N   0  0  0  0  0  0  0  0  0  0  0  0
  -43.7159  -61.4002  -14.9928 C   0  0  0  0  0  0  0  0  0  0  0  0
  -42.3265  -61.4926  -14.4506 C   0  0  0  0  0  0  0  0  0  0  0  0
  -41.4689  -62.5725  -14.5638 C   0  0  0  0  0  0  0  0  0  0  0  0
  -40.2893  -62.2535  -13.9468 N   0  0  0  0  0  0  0  0  0  0  0  0
  -40.3507  -60.9824  -13.4271 C   0  0  0  0  0  0  0  0  0  0  0  0
  -39.3892  -60.2477  -12.7224 C   0  0  0  0  0  0  0  0  0  0  0  0
  -39.7370  -58.9606  -12.3020 C   0  0  0  0  0  0  0  0  0  0  0  0
  -40.9967  -58.4330  -12.5744 C   0  0  0  0  0  0  0  0  0  0  0  0
  -41.9451  -59.1813  -13.2810 C   0  0  0  0  0  0  0  0  0  0  0  0
  -41.6190  -60.4809  -13.7211 C   0  0  0  0  0  0  0  0  0  0  0  0
  1  2  1  0
  2  3  2  0
  2  4  2  0
  2  5  1  0
  5  6  2  0
  6  7  1  0
  7  8  2  0
  8  9  1  0
  9 10  2  0
 10 11  1  0
 11 12  1  0
 12 13  1  0
 13 14  1  0
 14 15  1  0
 15 16  1  0
 16 17  1  0
 17 18  1  0
 18 19  1  0
 19 20  1  0
 20 21  2  0
 21 22  1  0
 22 23  1  0
 23 24  2  0
 24 25  1  0
 25 26  2  0
 26 27  1  0
 27 28  2  0
 10  5  1  0
 16 11  1  0
 28 20  1  0
 28 23  1  0
M  END
$$$$
