
     RDKit          3D

 18 19  0  0  0  0  0  0  0  0999 V2000
   23.1017   64.1228  -65.0522 C   0  0  0  0  0  0  0  0  0  0  0  0
   22.2493   65.2591  -65.0062 O   0  0  0  0  0  0  0  0  0  0  0  0
   22.8486   66.4845  -64.8984 C   0  0  0  0  0  0  0  0  0  0  0  0
   21.9644   67.5547  -64.8069 C   0  0  0  0  0  0  0  0  0  0  0  0
   22.4441   68.8582  -64.7049 C   0  0  0  0  0  0  0  0  0  0  0  0
   23.8254   69.1180  -64.6955 C   0  0  0  0  0  0  0  0  0  0  0  0
   24.2741   70.5575  -64.5612 C   0  0  0  0  0  0  0  0  0  0  0  0
   24.6902   70.9060  -63.1489 C   0  0  0  0  0  0  0  0  0  0  0  0
   25.9856   70.5957  -62.8463 N   0  0  0  0  0  0  0  0  0  0  0  0
   23.9511   71.4327  -62.3244 O   0  0  0  0  0  0  0  0  0  0  0  0
   24.7397   68.0394  -64.7646 C   0  0  0  0  0  0  0  0  0  0  0  0
   26.1393   68.3005  -64.7486 N   0  0  0  0  0  0  0  0  0  0  0  0
   26.9494   67.3168  -63.9950 C   0  0  0  0  0  0  0  0  0  0  0  0
   28.3891   67.8254  -63.8921 C   0  0  0  0  0  0  0  0  0  0  0  0
   28.9749   68.0996  -65.2763 C   0  0  0  0  0  0  0  0  0  0  0  0
   28.0635   69.0209  -66.0851 C   0  0  0  0  0  0  0  0  0  0  0  0
   26.6322   68.4844  -66.1338 C   0  0  0  0  0  0  0  0  0  0  0  0
   24.2246   66.7307  -64.8796 C   0  0  0  0  0  0  0  0  0  0  0  0
  1  2  1  0
  2  3  1  0
  3  4  2  0
  4  5  1  0
  5  6  2  0
  6  7  1  0
  7  8  1  0
  8  9  1  0
  8 10  2  0
  6 11  1  0
 11 12  1  0
 12 13  1  0
 13 14  1  0
 14 15  1  0
 15 16  1  0
 16 17  1  0
 11 18  2  0
 18  3  1  0
 17 12  1  0
M  END
$$$$
