
     RDKit          3D

 15 16  0  0  0  0  0  0  0  0999 V2000
   28.2191  -10.0809    2.5755 N   0  0  0  0  0  0  0  0  0  0  0  0
   27.5323  -10.8946    3.4258 C   0  0  0  0  0  0  0  0  0  0  0  0
   27.1898  -10.4864    4.5305 O   0  0  0  0  0  0  0  0  0  0  0  0
   27.2186  -12.2834    2.9575 C   0  0  0  0  0  0  0  0  0  0  0  0
   26.3439  -13.0207    3.7786 C   0  0  0  0  0  0  0  0  0  0  0  0
   25.9719  -14.3227    3.4475 C   0  0  0  0  0  0  0  0  0  0  0  0
   26.4728  -14.9083    2.2922 C   0  0  0  0  0  0  0  0  0  0  0  0
   27.3455  -14.1931    1.4688 C   0  0  0  0  0  0  0  0  0  0  0  0
   27.7360  -12.8720    1.7752 C   0  0  0  0  0  0  0  0  0  0  0  0
   28.6485  -12.1745    0.9313 N   0  0  0  0  0  0  0  0  0  0  0  0
   28.1670  -12.0602   -0.4610 C   0  0  0  0  0  0  0  0  0  0  0  0
   29.1024  -11.1278   -1.2322 C   0  0  0  0  0  0  0  0  0  0  0  0
   30.5482  -11.6186   -1.1632 C   0  0  0  0  0  0  0  0  0  0  0  0
   30.9854  -11.8348    0.2851 C   0  0  0  0  0  0  0  0  0  0  0  0
   30.0086  -12.7458    1.0303 C   0  0  0  0  0  0  0  0  0  0  0  0
  1  2  1  0
  2  3  2  0
  2  4  1  0
  4  5  2  0
  5  6  1  0
  6  7  2  0
  7  8  1  0
  8  9  2  0
  9 10  1  0
 10 11  1  0
 11 12  1  0
 12 13  1  0
 13 14  1  0
 14 15  1  0
  9  4  1  0
 15 10  1  0
M  END
$$$$
