
     RDKit          3D

 27 29  0  0  0  0  0  0  0  0999 V2000
  -13.5836    8.3083   12.8797 N   0  0  0  0  0  0  0  0  0  0  0  0
  -12.4008    8.0018   12.0867 C   0  0  0  0  0  0  0  0  0  0  0  0
  -12.6583    6.8550   11.1378 C   0  0  0  0  0  0  0  0  0  0  0  0
  -12.3691    5.5534   11.5780 C   0  0  0  0  0  0  0  0  0  0  0  0
  -12.6077    4.4865   10.7313 C   0  0  0  0  0  0  0  0  0  0  0  0
  -13.1113    4.6200    9.4923 N   0  0  0  0  0  0  0  0  0  0  0  0
  -13.3992    5.8788    9.0843 C   0  0  0  0  0  0  0  0  0  0  0  0
  -13.2058    7.0326    9.8469 C   0  0  0  0  0  0  0  0  0  0  0  0
  -13.5395    8.4190    9.3278 C   0  0  0  0  0  0  0  0  0  0  0  0
  -14.1523    8.5566    7.9212 C   0  0  0  0  0  0  0  0  0  0  0  0
  -15.5398    8.0834    7.8558 N   0  0  0  0  0  0  0  0  0  0  0  0
  -16.5204    9.0211    8.2764 C   0  0  0  0  0  0  0  0  0  0  0  0
  -16.6738   10.2622    7.6503 C   0  0  0  0  0  0  0  0  0  0  0  0
  -17.6623   11.1476    8.0801 C   0  0  0  0  0  0  0  0  0  0  0  0
  -18.5007   10.7847    9.1379 C   0  0  0  0  0  0  0  0  0  0  0  0
  -19.7766   11.8902    9.6568 S   0  0  0  0  0  0  0  0  0  0  0  0
  -18.9920   12.7983   10.8311 N   0  0  0  0  0  0  0  0  0  0  0  0
  -20.0805   12.8091    8.5848 O   0  0  0  0  0  0  0  0  0  0  0  0
  -20.8017   11.1481   10.3535 O   0  0  0  0  0  0  0  0  0  0  0  0
  -18.3822    9.5368    9.7575 C   0  0  0  0  0  0  0  0  0  0  0  0
  -17.3914    8.6447    9.3358 C   0  0  0  0  0  0  0  0  0  0  0  0
  -17.2071    7.3583    9.9089 N   0  0  0  0  0  0  0  0  0  0  0  0
  -17.0830    7.3761   11.3750 C   0  0  0  0  0  0  0  0  0  0  0  0
  -16.6705    5.9860   11.8589 C   0  0  0  0  0  0  0  0  0  0  0  0
  -17.6505    4.9199   11.3716 C   0  0  0  0  0  0  0  0  0  0  0  0
  -17.8291    4.9949    9.8559 C   0  0  0  0  0  0  0  0  0  0  0  0
  -18.2151    6.4061    9.4109 C   0  0  0  0  0  0  0  0  0  0  0  0
  1  2  1  0
  2  3  1  0
  3  4  2  0
  4  5  1  0
  5  6  2  0
  6  7  1  0
  7  8  2  0
  8  9  1  0
  9 10  1  0
 10 11  1  0
 11 12  1  0
 12 13  2  0
 13 14  1  0
 14 15  2  0
 15 16  1  0
 16 17  1  0
 16 18  2  0
 16 19  2  0
 15 20  1  0
 20 21  2  0
 21 22  1  0
 22 23  1  0
 23 24  1  0
 24 25  1  0
 25 26  1  0
 26 27  1  0
  8  3  1  0
 21 12  1  0
 27 22  1  0
M  END
$$$$
