
     RDKit          3D

 24 26  0  0  0  0  0  0  0  0999 V2000
  -26.2921   21.7005   28.7772 N   0  0  0  0  0  0  0  0  0  0  0  0
  -26.2213   22.2876   27.4344 C   0  0  0  0  0  0  0  0  0  0  0  0
  -25.7804   21.2887   26.3467 C   0  0  0  0  0  0  0  0  0  0  0  0
  -25.3661   22.0400   25.2097 O   0  0  0  0  0  0  0  0  0  0  0  0
  -26.9073   20.2927   26.0366 C   0  0  0  0  0  0  0  0  0  0  0  0
  -27.7281   19.9332   26.8852 O   0  0  0  0  0  0  0  0  0  0  0  0
  -27.0415   19.7287   24.6606 C   0  0  0  0  0  0  0  0  0  0  0  0
  -28.3669   19.6984   24.1788 C   0  0  0  0  0  0  0  0  0  0  0  0
  -28.6481   19.2346   22.9017 C   0  0  0  0  0  0  0  0  0  0  0  0
  -27.6082   18.7871   22.1022 C   0  0  0  0  0  0  0  0  0  0  0  0
  -26.2919   18.7961   22.5815 C   0  0  0  0  0  0  0  0  0  0  0  0
  -25.9558   19.2635   23.8691 C   0  0  0  0  0  0  0  0  0  0  0  0
  -24.6220   19.2375   24.3524 N   0  0  0  0  0  0  0  0  0  0  0  0
  -24.4516   18.2867   25.4816 C   0  0  0  0  0  0  0  0  0  0  0  0
  -23.9758   16.9217   25.0005 C   0  0  0  0  0  0  0  0  0  0  0  0
  -22.6998   17.0083   24.1667 C   0  0  0  0  0  0  0  0  0  0  0  0
  -22.2755   18.4518   23.9113 C   0  0  0  0  0  0  0  0  0  0  0  0
  -23.4714   19.2971   23.3916 C   0  0  0  0  0  0  0  0  0  0  0  0
  -22.9439   20.5908   22.9329 N   0  0  0  0  0  0  0  0  0  0  0  0
  -22.3277   21.4222   23.9701 C   0  0  0  0  0  0  0  0  0  0  0  0
  -22.3511   22.9249   23.6640 C   0  0  0  0  0  0  0  0  0  0  0  0
  -22.0849   23.1906   22.1895 C   0  0  0  0  0  0  0  0  0  0  0  0
  -23.0490   22.4117   21.2928 C   0  0  0  0  0  0  0  0  0  0  0  0
  -23.8255   21.3167   22.0309 C   0  0  0  0  0  0  0  0  0  0  0  0
  1  2  1  0
  2  3  1  0
  3  4  1  0
  3  5  1  0
  5  6  2  0
  5  7  1  0
  7  8  2  0
  8  9  1  0
  9 10  2  0
 10 11  1  0
 11 12  2  0
 12 13  1  0
 13 14  1  0
 14 15  1  0
 15 16  1  0
 16 17  1  0
 17 18  1  0
 18 19  1  0
 19 20  1  0
 20 21  1  0
 21 22  1  0
 22 23  1  0
 23 24  1  0
 12  7  1  0
 18 13  1  0
 24 19  1  0
M  END
$$$$
