
     RDKit          3D

 29 32  0  0  0  0  0  0  0  0999 V2000
   -2.2715   -7.5285    7.7151 C   0  0  0  0  0  0  0  0  0  0  0  0
   -1.4864   -7.6236    8.8968 O   0  0  0  0  0  0  0  0  0  0  0  0
   -1.1676   -8.8829    9.3253 C   0  0  0  0  0  0  0  0  0  0  0  0
   -1.4174  -10.0684    8.6423 C   0  0  0  0  0  0  0  0  0  0  0  0
   -1.0485  -11.2930    9.2099 C   0  0  0  0  0  0  0  0  0  0  0  0
   -0.4103  -11.3627   10.4629 C   0  0  0  0  0  0  0  0  0  0  0  0
   -0.0698  -12.6929   11.1040 C   0  0  0  0  0  0  0  0  0  0  0  0
   -0.0075  -13.8276   10.1731 N   0  0  0  0  0  0  0  0  0  0  0  0
   -0.1452  -10.1570   11.1538 C   0  0  0  0  0  0  0  0  0  0  0  0
    0.4640  -10.1989   12.4332 N   0  0  0  0  0  0  0  0  0  0  0  0
   -0.5229   -9.9762   13.5138 C   0  0  0  0  0  0  0  0  0  0  0  0
   -0.5881   -8.5243   13.9527 C   0  0  0  0  0  0  0  0  0  0  0  0
   -1.6521   -7.9681   14.2354 O   0  0  0  0  0  0  0  0  0  0  0  0
    0.7241   -7.7895   14.0677 C   0  0  0  0  0  0  0  0  0  0  0  0
    1.8990   -8.7342   13.8498 C   0  0  0  0  0  0  0  0  0  0  0  0
    1.7672   -9.4752   12.5086 C   0  0  0  0  0  0  0  0  0  0  0  0
    2.8940  -10.5120   12.3081 C   0  0  0  0  0  0  0  0  0  0  0  0
    4.3063   -9.9266   12.2996 C   0  0  0  0  0  0  0  0  0  0  0  0
    4.4653   -9.0338   11.1638 N   0  0  0  0  0  0  0  0  0  0  0  0
    5.6752   -8.3340   11.1238 C   0  0  0  0  0  0  0  0  0  0  0  0
    6.2616   -7.8837   12.2651 N   0  0  0  0  0  0  0  0  0  0  0  0
    7.4025   -7.1640   12.1710 C   0  0  0  0  0  0  0  0  0  0  0  0
    8.0922   -6.8247   11.0636 N   0  0  0  0  0  0  0  0  0  0  0  0
    7.4819   -7.3036    9.9689 C   0  0  0  0  0  0  0  0  0  0  0  0
    7.8852   -7.1657    8.6715 N   0  0  0  0  0  0  0  0  0  0  0  0
    6.9824   -7.8222    7.8840 C   0  0  0  0  0  0  0  0  0  0  0  0
    6.0144   -8.3637    8.5921 N   0  0  0  0  0  0  0  0  0  0  0  0
    6.3155   -8.0427    9.9033 C   0  0  0  0  0  0  0  0  0  0  0  0
   -0.5313   -8.9346   10.5689 C   0  0  0  0  0  0  0  0  0  0  0  0
  1  2  1  0
  2  3  1  0
  3  4  2  0
  4  5  1  0
  5  6  2  0
  6  7  1  0
  7  8  1  0
  6  9  1  0
  9 10  1  0
 10 11  1  0
 11 12  1  0
 12 13  2  0
 12 14  1  0
 14 15  1  0
 15 16  1  0
 16 17  1  0
 17 18  1  0
 18 19  1  0
 19 20  1  0
 20 21  2  0
 21 22  1  0
 22 23  2  0
 23 24  1  0
 24 25  1  0
 25 26  1  0
 26 27  2  0
 27 28  1  0
  9 29  2  0
 29  3  1  0
 16 10  1  0
 28 20  1  0
 28 24  2  0
M  END
$$$$
