
     RDKit          3D

 19 20  0  0  0  0  0  0  0  0999 V2000
   11.5187  -39.2627   33.6578 N   0  0  0  0  0  0  0  0  0  0  0  0
   10.8794  -37.9479   33.6461 C   0  0  0  0  0  0  0  0  0  0  0  0
   10.2294  -37.6009   34.9783 C   0  0  0  0  0  0  0  0  0  0  0  0
    8.9002  -38.3022   35.1711 C   0  0  0  0  0  0  0  0  0  0  0  0
    8.7423  -39.1192   36.0816 O   0  0  0  0  0  0  0  0  0  0  0  0
    7.7869  -37.9730   34.1909 C   0  0  0  0  0  0  0  0  0  0  0  0
    6.4095  -38.1675   34.8103 C   0  0  0  0  0  0  0  0  0  0  0  0
    6.1398  -37.1711   35.9242 C   0  0  0  0  0  0  0  0  0  0  0  0
    6.8733  -36.1979   36.1123 O   0  0  0  0  0  0  0  0  0  0  0  0
    4.9059  -37.4159   36.7726 C   0  0  0  0  0  0  0  0  0  0  0  0
    3.6556  -37.1323   36.0110 C   0  0  0  0  0  0  0  0  0  0  0  0
    3.1161  -35.8852   35.7694 C   0  0  0  0  0  0  0  0  0  0  0  0
    1.9765  -36.0444   35.0299 N   0  0  0  0  0  0  0  0  0  0  0  0
    1.7630  -37.3729   34.7666 C   0  0  0  0  0  0  0  0  0  0  0  0
    0.7378  -37.9915   34.0414 C   0  0  0  0  0  0  0  0  0  0  0  0
    0.7723  -39.3871   33.9265 C   0  0  0  0  0  0  0  0  0  0  0  0
    1.7923  -40.1274   34.5154 C   0  0  0  0  0  0  0  0  0  0  0  0
    2.8070  -39.4928   35.2424 C   0  0  0  0  0  0  0  0  0  0  0  0
    2.7966  -38.0854   35.3727 C   0  0  0  0  0  0  0  0  0  0  0  0
  1  2  1  0
  2  3  1  0
  3  4  1  0
  4  5  2  0
  4  6  1  0
  6  7  1  0
  7  8  1  0
  8  9  2  0
  8 10  1  0
 10 11  1  0
 11 12  2  0
 12 13  1  0
 13 14  1  0
 14 15  2  0
 15 16  1  0
 16 17  2  0
 17 18  1  0
 18 19  2  0
 19 11  1  0
 19 14  1  0
M  END
$$$$
