
     RDKit          3D

 26 28  0  0  0  0  0  0  0  0999 V2000
  -16.4270   19.7143   21.7953 C   0  0  0  0  0  0  0  0  0  0  0  0
  -17.3249   19.3031   22.8204 O   0  0  0  0  0  0  0  0  0  0  0  0
  -16.6654   18.5036   23.8105 C   0  0  0  0  0  0  0  0  0  0  0  0
  -17.7287   17.6161   24.4766 C   0  0  0  0  0  0  0  0  0  0  0  0
  -18.3711   18.2290   25.7165 C   0  0  0  0  0  0  0  0  0  0  0  0
  -18.2670   19.7444   25.6970 C   0  0  0  0  0  0  0  0  0  0  0  0
  -16.7797   20.1886   25.7011 C   0  0  0  0  0  0  0  0  0  0  0  0
  -16.6441   21.6609   25.6533 N   0  0  0  0  0  0  0  0  0  0  0  0
  -17.1227   22.2834   24.4166 C   0  0  0  0  0  0  0  0  0  0  0  0
  -16.9913   23.8050   24.4899 C   0  0  0  0  0  0  0  0  0  0  0  0
  -17.8294   24.3947   25.6230 C   0  0  0  0  0  0  0  0  0  0  0  0
  -18.1771   23.3593   26.6893 C   0  0  0  0  0  0  0  0  0  0  0  0
  -17.0496   22.3470   26.8850 C   0  0  0  0  0  0  0  0  0  0  0  0
  -15.9750   19.3806   24.7522 N   0  0  0  0  0  0  0  0  0  0  0  0
  -14.7265   18.9403   25.2503 C   0  0  0  0  0  0  0  0  0  0  0  0
  -14.4734   17.6103   25.6114 C   0  0  0  0  0  0  0  0  0  0  0  0
  -13.3038   17.1289   26.0964 N   0  0  0  0  0  0  0  0  0  0  0  0
  -12.3062   18.0202   26.2258 C   0  0  0  0  0  0  0  0  0  0  0  0
  -12.4252   19.3615   25.9057 C   0  0  0  0  0  0  0  0  0  0  0  0
  -13.6507   19.8496   25.4375 C   0  0  0  0  0  0  0  0  0  0  0  0
  -13.7906   21.1837   24.9906 N   0  0  0  0  0  0  0  0  0  0  0  0
  -13.0914   22.2522   25.7055 C   0  0  0  0  0  0  0  0  0  0  0  0
  -11.9322   22.7622   24.8603 C   0  0  0  0  0  0  0  0  0  0  0  0
  -11.2191   23.8985   25.5487 C   0  0  0  0  0  0  0  0  0  0  0  0
  -10.1993   24.4413   24.8216 N   0  0  0  0  0  0  0  0  0  0  0  0
  -11.4881   24.3207   26.6659 O   0  0  0  0  0  0  0  0  0  0  0  0
  1  2  1  0
  2  3  1  0
  3  4  1  0
  4  5  1  0
  5  6  1  0
  6  7  1  0
  7  8  1  0
  8  9  1  0
  9 10  1  0
 10 11  1  0
 11 12  1  0
 12 13  1  0
  7 14  1  0
 14 15  1  0
 15 16  2  0
 16 17  1  0
 17 18  2  0
 18 19  1  0
 19 20  2  0
 20 21  1  0
 21 22  1  0
 22 23  1  0
 23 24  1  0
 24 25  1  0
 24 26  2  0
 14  3  1  0
 20 15  1  0
 13  8  1  0
M  END
$$$$
