
     RDKit          3D

 18 19  0  0  0  0  0  0  0  0999 V2000
   14.9926   29.8573   44.0696 N   0  0  0  0  0  0  0  0  0  0  0  0
   14.4466   30.9378   44.8936 C   0  0  0  0  0  0  0  0  0  0  0  0
   14.8145   32.2997   44.3176 C   0  0  0  0  0  0  0  0  0  0  0  0
   14.2523   33.4106   45.1828 C   0  0  0  0  0  0  0  0  0  0  0  0
   14.3163   33.3957   46.4114 O   0  0  0  0  0  0  0  0  0  0  0  0
   13.7132   34.6160   44.5109 C   0  0  0  0  0  0  0  0  0  0  0  0
   14.3068   35.8415   44.8564 C   0  0  0  0  0  0  0  0  0  0  0  0
   13.9048   37.0155   44.2249 C   0  0  0  0  0  0  0  0  0  0  0  0
   12.9123   36.9525   43.2568 C   0  0  0  0  0  0  0  0  0  0  0  0
   12.4855   38.0743   42.6084 O   0  0  0  0  0  0  0  0  0  0  0  0
   12.3044   35.7415   42.9233 C   0  0  0  0  0  0  0  0  0  0  0  0
   12.6815   34.5419   43.5515 C   0  0  0  0  0  0  0  0  0  0  0  0
   12.0211   33.3281   43.2835 N   0  0  0  0  0  0  0  0  0  0  0  0
   11.0344   32.9859   44.3305 C   0  0  0  0  0  0  0  0  0  0  0  0
    9.9939   31.9822   43.8250 C   0  0  0  0  0  0  0  0  0  0  0  0
   10.6130   30.9422   42.8990 C   0  0  0  0  0  0  0  0  0  0  0  0
   11.3503   31.5858   41.7211 C   0  0  0  0  0  0  0  0  0  0  0  0
   11.5864   33.0863   41.9058 C   0  0  0  0  0  0  0  0  0  0  0  0
  1  2  1  0
  2  3  1  0
  3  4  1  0
  4  5  2  0
  4  6  1  0
  6  7  2  0
  7  8  1  0
  8  9  2  0
  9 10  1  0
  9 11  1  0
 11 12  2  0
 12 13  1  0
 13 14  1  0
 14 15  1  0
 15 16  1  0
 16 17  1  0
 17 18  1  0
 12  6  1  0
 18 13  1  0
M  END
$$$$
