
     RDKit          3D

 27 30  0  0  0  0  0  0  0  0999 V2000
    8.8399  -10.7545  -28.7315 N   0  0  0  0  0  0  0  0  0  0  0  0
    8.1259   -9.5713  -29.2063 C   0  0  0  0  0  0  0  0  0  0  0  0
    7.3472   -8.9122  -28.0948 C   0  0  0  0  0  0  0  0  0  0  0  0
    8.0371   -8.1452  -27.1411 C   0  0  0  0  0  0  0  0  0  0  0  0
    7.3292   -7.5466  -26.1116 C   0  0  0  0  0  0  0  0  0  0  0  0
    5.9967   -7.6593  -25.9559 N   0  0  0  0  0  0  0  0  0  0  0  0
    5.3530   -8.4152  -26.8753 C   0  0  0  0  0  0  0  0  0  0  0  0
    5.9529   -9.0475  -27.9743 C   0  0  0  0  0  0  0  0  0  0  0  0
    5.2260   -9.8066  -28.9192 N   0  0  0  0  0  0  0  0  0  0  0  0
    4.8960  -11.1326  -28.3441 C   0  0  0  0  0  0  0  0  0  0  0  0
    4.1316  -12.0003  -29.3336 C   0  0  0  0  0  0  0  0  0  0  0  0
    4.2801  -13.2223  -29.3860 O   0  0  0  0  0  0  0  0  0  0  0  0
    3.0450  -11.3168  -30.1279 C   0  0  0  0  0  0  0  0  0  0  0  0
    3.5567   -9.9984  -30.6745 C   0  0  0  0  0  0  0  0  0  0  0  0
    4.1011   -9.1021  -29.5552 C   0  0  0  0  0  0  0  0  0  0  0  0
    4.5755   -7.9221  -30.2014 O   0  0  0  0  0  0  0  0  0  0  0  0
    4.0054   -6.7248  -29.7066 C   0  0  0  0  0  0  0  0  0  0  0  0
    2.6986   -6.5148  -30.3028 N   0  0  0  0  0  0  0  0  0  0  0  0
    1.6255   -6.9103  -29.5885 C   0  0  0  0  0  0  0  0  0  0  0  0
    0.8547   -7.9416  -29.8229 N   0  0  0  0  0  0  0  0  0  0  0  0
   -0.0761   -7.9342  -28.8116 C   0  0  0  0  0  0  0  0  0  0  0  0
   -1.1367   -8.8165  -28.5619 C   0  0  0  0  0  0  0  0  0  0  0  0
   -1.9484   -8.5898  -27.4429 C   0  0  0  0  0  0  0  0  0  0  0  0
   -1.7094   -7.5074  -26.5919 C   0  0  0  0  0  0  0  0  0  0  0  0
   -0.6569   -6.6143  -26.8261 C   0  0  0  0  0  0  0  0  0  0  0  0
    0.1366   -6.8653  -27.9466 C   0  0  0  0  0  0  0  0  0  0  0  0
    1.2206   -6.2177  -28.4796 N   0  0  0  0  0  0  0  0  0  0  0  0
  1  2  1  0
  2  3  1  0
  3  4  2  0
  4  5  1  0
  5  6  2  0
  6  7  1  0
  7  8  2  0
  8  9  1  0
  9 10  1  0
 10 11  1  0
 11 12  2  0
 11 13  1  0
 13 14  1  0
 14 15  1  0
 15 16  1  0
 16 17  1  0
 17 18  1  0
 18 19  1  0
 19 20  2  0
 20 21  1  0
 21 22  2  0
 22 23  1  0
 23 24  2  0
 24 25  1  0
 25 26  2  0
 26 27  1  0
  8  3  1  0
 15  9  1  0
 27 19  1  0
 26 21  1  0
M  END
$$$$
