
     RDKit          3D

 16 17  0  0  0  0  0  0  0  0999 V2000
   14.3384   19.9473    3.4879 N   0  0  0  0  0  0  0  0  0  0  0  0
   13.4341   19.8154    4.6302 C   0  0  0  0  0  0  0  0  0  0  0  0
   12.0214   19.4969    4.1572 C   0  0  0  0  0  0  0  0  0  0  0  0
   11.0595   19.3426    5.3213 C   0  0  0  0  0  0  0  0  0  0  0  0
   11.3851   19.6033    6.4789 O   0  0  0  0  0  0  0  0  0  0  0  0
    9.6633   18.8731    4.9596 C   0  0  0  0  0  0  0  0  0  0  0  0
    8.7699   18.7274    6.1875 C   0  0  0  0  0  0  0  0  0  0  0  0
    7.3951   18.2641    5.8213 C   0  0  0  0  0  0  0  0  0  0  0  0
    6.9460   16.9578    5.8168 C   0  0  0  0  0  0  0  0  0  0  0  0
    5.6363   16.9542    5.4195 N   0  0  0  0  0  0  0  0  0  0  0  0
    5.2147   18.2362    5.1565 C   0  0  0  0  0  0  0  0  0  0  0  0
    3.9680   18.7050    4.7248 C   0  0  0  0  0  0  0  0  0  0  0  0
    3.8220   20.0830    4.5412 C   0  0  0  0  0  0  0  0  0  0  0  0
    4.8812   20.9547    4.7814 C   0  0  0  0  0  0  0  0  0  0  0  0
    6.1210   20.4686    5.2126 C   0  0  0  0  0  0  0  0  0  0  0  0
    6.2958   19.0824    5.4043 C   0  0  0  0  0  0  0  0  0  0  0  0
  1  2  1  0
  2  3  1  0
  3  4  1  0
  4  5  2  0
  4  6  1  0
  6  7  1  0
  7  8  1  0
  8  9  2  0
  9 10  1  0
 10 11  1  0
 11 12  2  0
 12 13  1  0
 13 14  2  0
 14 15  1  0
 15 16  2  0
 16  8  1  0
 16 11  1  0
M  END
$$$$
