
     RDKit          3D

 28 31  0  0  0  0  0  0  0  0999 V2000
  -18.3114  -14.3631  -13.2078 N   0  0  0  0  0  0  0  0  0  0  0  0
  -17.2016  -15.4733  -13.8413 S   0  0  0  0  0  0  0  0  0  0  0  0
  -15.9888  -15.2187  -13.0984 O   0  0  0  0  0  0  0  0  0  0  0  0
  -17.9213  -16.7256  -13.7860 O   0  0  0  0  0  0  0  0  0  0  0  0
  -16.9788  -14.9654  -15.5191 C   0  0  0  0  0  0  0  0  0  0  0  0
  -17.4794  -13.7214  -15.9233 C   0  0  0  0  0  0  0  0  0  0  0  0
  -17.3917  -13.3838  -17.2589 C   0  0  0  0  0  0  0  0  0  0  0  0
  -16.8576  -14.1899  -18.1933 N   0  0  0  0  0  0  0  0  0  0  0  0
  -16.3748  -15.3815  -17.7635 C   0  0  0  0  0  0  0  0  0  0  0  0
  -16.3821  -15.8375  -16.4411 C   0  0  0  0  0  0  0  0  0  0  0  0
  -15.8245  -17.0618  -16.0715 N   0  0  0  0  0  0  0  0  0  0  0  0
  -16.1761  -18.2327  -16.8842 C   0  0  0  0  0  0  0  0  0  0  0  0
  -15.9423  -19.5051  -16.0708 C   0  0  0  0  0  0  0  0  0  0  0  0
  -14.5290  -19.5617  -15.4947 C   0  0  0  0  0  0  0  0  0  0  0  0
  -14.2132  -18.2895  -14.7082 C   0  0  0  0  0  0  0  0  0  0  0  0
  -14.4292  -17.0144  -15.5475 C   0  0  0  0  0  0  0  0  0  0  0  0
  -13.3724  -16.8260  -16.6801 C   0  0  0  0  0  0  0  0  0  0  0  0
  -11.9900  -16.7645  -16.1932 N   0  0  0  0  0  0  0  0  0  0  0  0
  -11.0603  -16.4663  -17.2804 C   0  0  0  0  0  0  0  0  0  0  0  0
   -9.6709  -16.5587  -16.7382 C   0  0  0  0  0  0  0  0  0  0  0  0
   -8.8132  -17.6386  -16.8514 C   0  0  0  0  0  0  0  0  0  0  0  0
   -7.6337  -17.3196  -16.2344 N   0  0  0  0  0  0  0  0  0  0  0  0
   -7.6951  -16.0485  -15.7147 C   0  0  0  0  0  0  0  0  0  0  0  0
   -6.7336  -15.3139  -15.0100 C   0  0  0  0  0  0  0  0  0  0  0  0
   -7.0814  -14.0267  -14.5896 C   0  0  0  0  0  0  0  0  0  0  0  0
   -8.3411  -13.4992  -14.8620 C   0  0  0  0  0  0  0  0  0  0  0  0
   -9.2895  -14.2475  -15.5686 C   0  0  0  0  0  0  0  0  0  0  0  0
   -8.9634  -15.5470  -16.0087 C   0  0  0  0  0  0  0  0  0  0  0  0
  1  2  1  0
  2  3  2  0
  2  4  2  0
  2  5  1  0
  5  6  2  0
  6  7  1  0
  7  8  2  0
  8  9  1  0
  9 10  2  0
 10 11  1  0
 11 12  1  0
 12 13  1  0
 13 14  1  0
 14 15  1  0
 15 16  1  0
 16 17  1  0
 17 18  1  0
 18 19  1  0
 19 20  1  0
 20 21  2  0
 21 22  1  0
 22 23  1  0
 23 24  2  0
 24 25  1  0
 25 26  2  0
 26 27  1  0
 27 28  2  0
 10  5  1  0
 16 11  1  0
 28 20  1  0
 28 23  1  0
M  END
$$$$
