
     RDKit          3D

 23 25  0  0  0  0  0  0  0  0999 V2000
   -5.0575  -21.2073   20.3835 C   0  0  0  0  0  0  0  0  0  0  0  0
   -3.9133  -21.9027   20.8634 O   0  0  0  0  0  0  0  0  0  0  0  0
   -3.1141  -21.2359   21.7509 C   0  0  0  0  0  0  0  0  0  0  0  0
   -3.2320  -19.8994   22.1131 C   0  0  0  0  0  0  0  0  0  0  0  0
   -2.3404  -19.3498   23.0368 C   0  0  0  0  0  0  0  0  0  0  0  0
   -1.3217  -20.1250   23.6275 C   0  0  0  0  0  0  0  0  0  0  0  0
   -0.4191  -19.4793   24.6576 C   0  0  0  0  0  0  0  0  0  0  0  0
   -1.1649  -18.9887   25.8231 N   0  0  0  0  0  0  0  0  0  0  0  0
   -1.1744  -21.4727   23.2375 C   0  0  0  0  0  0  0  0  0  0  0  0
   -0.1156  -22.2543   23.7441 N   0  0  0  0  0  0  0  0  0  0  0  0
   -0.5283  -23.4833   24.4411 C   0  0  0  0  0  0  0  0  0  0  0  0
   -0.4552  -24.7177   23.5610 C   0  0  0  0  0  0  0  0  0  0  0  0
   -1.2326  -25.6649   23.6920 O   0  0  0  0  0  0  0  0  0  0  0  0
    0.6454  -24.7590   22.5309 C   0  0  0  0  0  0  0  0  0  0  0  0
    1.6965  -23.7057   22.8497 C   0  0  0  0  0  0  0  0  0  0  0  0
    1.0683  -22.2865   22.8469 C   0  0  0  0  0  0  0  0  0  0  0  0
    2.0808  -21.2412   23.0539 N   0  0  0  0  0  0  0  0  0  0  0  0
    2.8937  -21.3783   24.2535 C   0  0  0  0  0  0  0  0  0  0  0  0
    3.5517  -20.0372   24.6019 C   0  0  0  0  0  0  0  0  0  0  0  0
    4.0034  -19.2452   23.3720 C   0  0  0  0  0  0  0  0  0  0  0  0
    4.1566  -20.1535   22.1599 C   0  0  0  0  0  0  0  0  0  0  0  0
    2.8506  -20.9018   21.8559 C   0  0  0  0  0  0  0  0  0  0  0  0
   -2.0874  -22.0060   22.3065 C   0  0  0  0  0  0  0  0  0  0  0  0
  1  2  1  0
  2  3  1  0
  3  4  2  0
  4  5  1  0
  5  6  2  0
  6  7  1  0
  7  8  1  0
  6  9  1  0
  9 10  1  0
 10 11  1  0
 11 12  1  0
 12 13  2  0
 12 14  1  0
 14 15  1  0
 15 16  1  0
 16 17  1  0
 17 18  1  0
 18 19  1  0
 19 20  1  0
 20 21  1  0
 21 22  1  0
  9 23  2  0
 23  3  1  0
 16 10  1  0
 22 17  1  0
M  END
$$$$
