
     RDKit          3D

 31 34  0  0  0  0  0  0  0  0999 V2000
   24.9840   -1.9327  -18.1977 N   0  0  0  0  0  0  0  0  0  0  0  0
   24.7270   -2.9832  -17.2948 C   0  0  0  0  0  0  0  0  0  0  0  0
   24.8585   -4.2961  -17.7612 C   0  0  0  0  0  0  0  0  0  0  0  0
   24.7372   -5.3486  -16.8692 C   0  0  0  0  0  0  0  0  0  0  0  0
   24.5316   -5.1878  -15.5506 N   0  0  0  0  0  0  0  0  0  0  0  0
   24.4842   -3.9112  -15.1068 C   0  0  0  0  0  0  0  0  0  0  0  0
   24.5665   -2.7667  -15.9091 C   0  0  0  0  0  0  0  0  0  0  0  0
   24.4961   -1.4974  -15.2886 N   0  0  0  0  0  0  0  0  0  0  0  0
   25.8331   -0.8629  -15.2271 C   0  0  0  0  0  0  0  0  0  0  0  0
   25.7830    0.4546  -14.4702 C   0  0  0  0  0  0  0  0  0  0  0  0
   26.7030    0.8284  -13.7411 O   0  0  0  0  0  0  0  0  0  0  0  0
   24.5787    1.3345  -14.6999 C   0  0  0  0  0  0  0  0  0  0  0  0
   23.7395    0.8039  -15.8537 C   0  0  0  0  0  0  0  0  0  0  0  0
   23.3218   -0.6702  -15.6527 C   0  0  0  0  0  0  0  0  0  0  0  0
   22.2388   -0.7565  -14.5544 C   0  0  0  0  0  0  0  0  0  0  0  0
   21.5213   -2.0997  -14.4085 C   0  0  0  0  0  0  0  0  0  0  0  0
   21.0867   -2.7295  -15.6371 N   0  0  0  0  0  0  0  0  0  0  0  0
   20.2485   -2.1337  -16.5564 C   0  0  0  0  0  0  0  0  0  0  0  0
   19.9034   -0.9606  -16.5271 O   0  0  0  0  0  0  0  0  0  0  0  0
   19.8902   -3.0175  -17.6908 C   0  0  0  0  0  0  0  0  0  0  0  0
   20.9507   -3.3434  -18.5485 C   0  0  0  0  0  0  0  0  0  0  0  0
   20.7190   -4.2510  -19.5582 C   0  0  0  0  0  0  0  0  0  0  0  0
   19.5285   -4.8409  -19.7536 N   0  0  0  0  0  0  0  0  0  0  0  0
   18.5213   -4.4897  -18.9090 C   0  0  0  0  0  0  0  0  0  0  0  0
   18.6070   -3.5739  -17.8531 C   0  0  0  0  0  0  0  0  0  0  0  0
   17.5126   -3.2644  -17.0375 N   0  0  0  0  0  0  0  0  0  0  0  0
   16.4428   -4.2550  -16.8626 C   0  0  0  0  0  0  0  0  0  0  0  0
   15.4396   -3.7535  -15.8274 C   0  0  0  0  0  0  0  0  0  0  0  0
   14.7660   -2.4613  -16.2897 C   0  0  0  0  0  0  0  0  0  0  0  0
   15.6281   -1.6643  -17.2685 C   0  0  0  0  0  0  0  0  0  0  0  0
   17.1230   -1.8385  -16.9985 C   0  0  0  0  0  0  0  0  0  0  0  0
  1  2  1  0
  2  3  2  0
  3  4  1  0
  4  5  2  0
  5  6  1  0
  6  7  2  0
  7  8  1  0
  8  9  1  0
  9 10  1  0
 10 11  2  0
 10 12  1  0
 12 13  1  0
 13 14  1  0
 14 15  1  0
 15 16  1  0
 16 17  1  0
 17 18  1  0
 18 19  2  0
 18 20  1  0
 20 21  2  0
 21 22  1  0
 22 23  2  0
 23 24  1  0
 24 25  2  0
 25 26  1  0
 26 27  1  0
 27 28  1  0
 28 29  1  0
 29 30  1  0
 30 31  1  0
  7  2  1  0
 14  8  1  0
 25 20  1  0
 31 26  1  0
M  END
$$$$
