
     RDKit          3D

 16 17  0  0  0  0  0  0  0  0999 V2000
   -0.3492   13.4682   17.8150 N   0  0  0  0  0  0  0  0  0  0  0  0
   -1.2535   13.3363   18.9573 C   0  0  0  0  0  0  0  0  0  0  0  0
   -2.6662   13.0178   18.4843 C   0  0  0  0  0  0  0  0  0  0  0  0
   -3.6281   12.8635   19.6485 C   0  0  0  0  0  0  0  0  0  0  0  0
   -3.3025   13.1242   20.8060 O   0  0  0  0  0  0  0  0  0  0  0  0
   -5.0242   12.3940   19.2867 C   0  0  0  0  0  0  0  0  0  0  0  0
   -5.9177   12.2483   20.5147 C   0  0  0  0  0  0  0  0  0  0  0  0
   -7.2925   11.7850   20.1484 C   0  0  0  0  0  0  0  0  0  0  0  0
   -7.7416   10.4787   20.1439 C   0  0  0  0  0  0  0  0  0  0  0  0
   -9.0513   10.4751   19.7466 N   0  0  0  0  0  0  0  0  0  0  0  0
   -9.4729   11.7571   19.4836 C   0  0  0  0  0  0  0  0  0  0  0  0
  -10.7196   12.2259   19.0519 C   0  0  0  0  0  0  0  0  0  0  0  0
  -10.8656   13.6039   18.8683 C   0  0  0  0  0  0  0  0  0  0  0  0
   -9.8064   14.4755   19.1085 C   0  0  0  0  0  0  0  0  0  0  0  0
   -8.5665   13.9895   19.5397 C   0  0  0  0  0  0  0  0  0  0  0  0
   -8.3918   12.6033   19.7315 C   0  0  0  0  0  0  0  0  0  0  0  0
  1  2  1  0
  2  3  1  0
  3  4  1  0
  4  5  2  0
  4  6  1  0
  6  7  1  0
  7  8  1  0
  8  9  2  0
  9 10  1  0
 10 11  1  0
 11 12  2  0
 12 13  1  0
 13 14  2  0
 14 15  1  0
 15 16  2  0
 16  8  1  0
 16 11  1  0
M  END
$$$$
