
     RDKit          3D

 25 27  0  0  0  0  0  0  0  0999 V2000
    6.7872   11.5240   43.5138 C   0  0  0  0  0  0  0  0  0  0  0  0
    5.8498   12.4007   44.1244 O   0  0  0  0  0  0  0  0  0  0  0  0
    5.9874   13.7370   43.8664 C   0  0  0  0  0  0  0  0  0  0  0  0
    5.0296   14.5465   44.4670 C   0  0  0  0  0  0  0  0  0  0  0  0
    5.0484   15.9262   44.2697 C   0  0  0  0  0  0  0  0  0  0  0  0
    6.0326   16.5330   43.4669 C   0  0  0  0  0  0  0  0  0  0  0  0
    6.0208   18.0426   43.2866 C   0  0  0  0  0  0  0  0  0  0  0  0
    4.6645   18.5197   43.2923 O   0  0  0  0  0  0  0  0  0  0  0  0
    6.8305   18.7756   44.3733 C   0  0  0  0  0  0  0  0  0  0  0  0
    8.1882   18.7038   44.2901 N   0  0  0  0  0  0  0  0  0  0  0  0
    6.2880   19.4698   45.2347 O   0  0  0  0  0  0  0  0  0  0  0  0
    7.0378   15.7227   42.8875 C   0  0  0  0  0  0  0  0  0  0  0  0
    8.0534   16.3155   42.1070 N   0  0  0  0  0  0  0  0  0  0  0  0
    7.6218   16.4669   40.7015 C   0  0  0  0  0  0  0  0  0  0  0  0
    8.3086   15.4501   39.8057 C   0  0  0  0  0  0  0  0  0  0  0  0
    9.8181   15.6399   39.8334 C   0  0  0  0  0  0  0  0  0  0  0  0
   10.3097   16.3171   41.1167 C   0  0  0  0  0  0  0  0  0  0  0  0
    9.4706   15.9164   42.3672 C   0  0  0  0  0  0  0  0  0  0  0  0
   10.0422   16.4324   43.6438 N   0  0  0  0  0  0  0  0  0  0  0  0
   11.4586   16.7863   43.6650 C   0  0  0  0  0  0  0  0  0  0  0  0
   11.8173   17.5671   44.9386 C   0  0  0  0  0  0  0  0  0  0  0  0
   11.1491   17.0295   46.2009 C   0  0  0  0  0  0  0  0  0  0  0  0
   10.6366   15.6194   45.9792 C   0  0  0  0  0  0  0  0  0  0  0  0
    9.6747   15.5639   44.7853 C   0  0  0  0  0  0  0  0  0  0  0  0
    6.9783   14.3260   43.0785 C   0  0  0  0  0  0  0  0  0  0  0  0
  1  2  1  0
  2  3  1  0
  3  4  2  0
  4  5  1  0
  5  6  2  0
  6  7  1  0
  7  8  1  0
  7  9  1  0
  9 10  1  0
  9 11  2  0
  6 12  1  0
 12 13  1  0
 13 14  1  0
 14 15  1  0
 15 16  1  0
 16 17  1  0
 17 18  1  0
 18 19  1  0
 19 20  1  0
 20 21  1  0
 21 22  1  0
 22 23  1  0
 23 24  1  0
 12 25  2  0
 25  3  1  0
 18 13  1  0
 24 19  1  0
M  END
$$$$
