
     RDKit          3D

 23 25  0  0  0  0  0  0  0  0999 V2000
 -135.4629  -79.6419   91.6156 C   0  0  0  0  0  0  0  0  0  0  0  0
 -134.3186  -80.3373   92.0955 O   0  0  0  0  0  0  0  0  0  0  0  0
 -133.5194  -79.6705   92.9830 C   0  0  0  0  0  0  0  0  0  0  0  0
 -133.6374  -78.3340   93.3451 C   0  0  0  0  0  0  0  0  0  0  0  0
 -132.7458  -77.7844   94.2689 C   0  0  0  0  0  0  0  0  0  0  0  0
 -131.7271  -78.5596   94.8595 C   0  0  0  0  0  0  0  0  0  0  0  0
 -130.8245  -77.9139   95.8897 C   0  0  0  0  0  0  0  0  0  0  0  0
 -131.5703  -77.4233   97.0552 N   0  0  0  0  0  0  0  0  0  0  0  0
 -131.5798  -79.9073   94.4696 C   0  0  0  0  0  0  0  0  0  0  0  0
 -130.5210  -80.6889   94.9761 N   0  0  0  0  0  0  0  0  0  0  0  0
 -130.9337  -81.9179   95.6732 C   0  0  0  0  0  0  0  0  0  0  0  0
 -130.8605  -83.1523   94.7931 C   0  0  0  0  0  0  0  0  0  0  0  0
 -131.6379  -84.0995   94.9240 O   0  0  0  0  0  0  0  0  0  0  0  0
 -129.7599  -83.1936   93.7629 C   0  0  0  0  0  0  0  0  0  0  0  0
 -128.7089  -82.1403   94.0818 C   0  0  0  0  0  0  0  0  0  0  0  0
 -129.3371  -80.7211   94.0789 C   0  0  0  0  0  0  0  0  0  0  0  0
 -128.3246  -79.6758   94.2859 N   0  0  0  0  0  0  0  0  0  0  0  0
 -127.5117  -79.8129   95.4856 C   0  0  0  0  0  0  0  0  0  0  0  0
 -126.8537  -78.4718   95.8340 C   0  0  0  0  0  0  0  0  0  0  0  0
 -126.4020  -77.6798   94.6041 C   0  0  0  0  0  0  0  0  0  0  0  0
 -126.2488  -78.5881   93.3920 C   0  0  0  0  0  0  0  0  0  0  0  0
 -127.5548  -79.3364   93.0880 C   0  0  0  0  0  0  0  0  0  0  0  0
 -132.4928  -80.4406   93.5385 C   0  0  0  0  0  0  0  0  0  0  0  0
  1  2  1  0
  2  3  1  0
  3  4  2  0
  4  5  1  0
  5  6  2  0
  6  7  1  0
  7  8  1  0
  6  9  1  0
  9 10  1  0
 10 11  1  0
 11 12  1  0
 12 13  2  0
 12 14  1  0
 14 15  1  0
 15 16  1  0
 16 17  1  0
 17 18  1  0
 18 19  1  0
 19 20  1  0
 20 21  1  0
 21 22  1  0
  9 23  2  0
 23  3  1  0
 16 10  1  0
 22 17  1  0
M  END
$$$$
