
     RDKit          3D

 30 33  0  0  0  0  0  0  0  0999 V2000
   31.0223   29.0783    4.0487 C   0  0  0  0  0  0  0  0  0  0  0  0
   29.6263   29.2046    3.8072 O   0  0  0  0  0  0  0  0  0  0  0  0
   28.9823   28.0931    3.3296 C   0  0  0  0  0  0  0  0  0  0  0  0
   27.6252   28.2699    3.0785 C   0  0  0  0  0  0  0  0  0  0  0  0
   26.8542   27.2105    2.5982 C   0  0  0  0  0  0  0  0  0  0  0  0
   27.4298   25.9488    2.3540 C   0  0  0  0  0  0  0  0  0  0  0  0
   26.5408   24.8459    1.8249 C   0  0  0  0  0  0  0  0  0  0  0  0
   25.6579   24.3058    2.8576 N   0  0  0  0  0  0  0  0  0  0  0  0
   28.8107   25.7590    2.5930 C   0  0  0  0  0  0  0  0  0  0  0  0
   29.3904   24.5009    2.3607 N   0  0  0  0  0  0  0  0  0  0  0  0
   29.3313   23.6239    3.5391 C   0  0  0  0  0  0  0  0  0  0  0  0
   29.5156   22.1730    3.0901 C   0  0  0  0  0  0  0  0  0  0  0  0
   30.7828   21.9945    2.2550 C   0  0  0  0  0  0  0  0  0  0  0  0
   30.8285   23.0060    1.1054 C   0  0  0  0  0  0  0  0  0  0  0  0
   30.6551   24.4445    1.6202 C   0  0  0  0  0  0  0  0  0  0  0  0
   31.7580   24.7741    2.4654 O   0  0  0  0  0  0  0  0  0  0  0  0
   32.8249   25.3956    1.7486 C   0  0  0  0  0  0  0  0  0  0  0  0
   33.9870   25.6401    2.7156 C   0  0  0  0  0  0  0  0  0  0  0  0
   35.0715   26.3707    2.0593 N   0  0  0  0  0  0  0  0  0  0  0  0
   36.2527   26.4519    2.9338 C   0  0  0  0  0  0  0  0  0  0  0  0
   37.2649   27.4334    2.4000 C   0  0  0  0  0  0  0  0  0  0  0  0
   36.8604   28.7322    2.2015 N   0  0  0  0  0  0  0  0  0  0  0  0
   37.7570   29.6206    1.7197 C   0  0  0  0  0  0  0  0  0  0  0  0
   39.0471   29.4084    1.3958 N   0  0  0  0  0  0  0  0  0  0  0  0
   39.3872   28.1307    1.6137 C   0  0  0  0  0  0  0  0  0  0  0  0
   40.6065   27.5618    1.3896 N   0  0  0  0  0  0  0  0  0  0  0  0
   40.5167   26.2418    1.7424 C   0  0  0  0  0  0  0  0  0  0  0  0
   39.3163   25.9358    2.1878 N   0  0  0  0  0  0  0  0  0  0  0  0
   38.5929   27.1060    2.1007 C   0  0  0  0  0  0  0  0  0  0  0  0
   29.5615   26.8434    3.0923 C   0  0  0  0  0  0  0  0  0  0  0  0
  1  2  1  0
  2  3  1  0
  3  4  2  0
  4  5  1  0
  5  6  2  0
  6  7  1  0
  7  8  1  0
  6  9  1  0
  9 10  1  0
 10 11  1  0
 11 12  1  0
 12 13  1  0
 13 14  1  0
 14 15  1  0
 15 16  1  0
 16 17  1  0
 17 18  1  0
 18 19  1  0
 19 20  1  0
 20 21  1  0
 21 22  2  0
 22 23  1  0
 23 24  2  0
 24 25  1  0
 25 26  1  0
 26 27  1  0
 27 28  2  0
 28 29  1  0
  9 30  2  0
 30  3  1  0
 15 10  1  0
 29 21  1  0
 29 25  2  0
M  END
$$$$
