
     RDKit          3D

 19 20  0  0  0  0  0  0  0  0999 V2000
  -23.0093  -34.3773   37.9316 C   0  0  0  0  0  0  0  0  0  0  0  0
  -22.2890  -34.3707   36.6642 N   0  0  0  0  0  0  0  0  0  0  0  0
  -20.9206  -34.9152   36.7996 C   0  0  0  0  0  0  0  0  0  0  0  0
  -20.8854  -36.4618   36.9324 C   0  0  0  0  0  0  0  0  0  0  0  0
  -19.4448  -36.9865   36.9369 C   0  0  0  0  0  0  0  0  0  0  0  0
  -18.8220  -36.9154   38.3194 C   0  0  0  0  0  0  0  0  0  0  0  0
  -19.1984  -36.0917   39.1613 O   0  0  0  0  0  0  0  0  0  0  0  0
  -17.7461  -37.9328   38.6524 C   0  0  0  0  0  0  0  0  0  0  0  0
  -16.6280  -37.9406   37.6633 C   0  0  0  0  0  0  0  0  0  0  0  0
  -16.3282  -38.9536   36.7719 C   0  0  0  0  0  0  0  0  0  0  0  0
  -15.2080  -38.5897   36.0710 N   0  0  0  0  0  0  0  0  0  0  0  0
  -14.7881  -37.3406   36.4578 C   0  0  0  0  0  0  0  0  0  0  0  0
  -13.7093  -36.5710   36.0053 C   0  0  0  0  0  0  0  0  0  0  0  0
  -13.5088  -35.3230   36.6019 C   0  0  0  0  0  0  0  0  0  0  0  0
  -14.3521  -34.8667   37.6120 C   0  0  0  0  0  0  0  0  0  0  0  0
  -15.4275  -35.6490   38.0519 C   0  0  0  0  0  0  0  0  0  0  0  0
  -15.6537  -36.9107   37.4637 C   0  0  0  0  0  0  0  0  0  0  0  0
  -21.5866  -37.0067   35.7924 O   0  0  0  0  0  0  0  0  0  0  0  0
  -22.2066  -38.2590   36.0641 C   0  0  0  0  0  0  0  0  0  0  0  0
  1  2  1  0
  2  3  1  0
  3  4  1  0
  4  5  1  0
  5  6  1  0
  6  7  2  0
  6  8  1  0
  8  9  1  0
  9 10  2  0
 10 11  1  0
 11 12  1  0
 12 13  2  0
 13 14  1  0
 14 15  2  0
 15 16  1  0
 16 17  2  0
  4 18  1  0
 18 19  1  0
 17  9  1  0
 17 12  1  0
M  END
$$$$
