
     RDKit          3D

 26 28  0  0  0  0  0  0  0  0999 V2000
   -5.8027    1.6118   -8.7288 N   0  0  0  0  0  0  0  0  0  0  0  0
   -6.8921    1.7741   -7.7731 C   0  0  0  0  0  0  0  0  0  0  0  0
   -8.1589    2.2392   -8.4466 C   0  0  0  0  0  0  0  0  0  0  0  0
   -8.1875    3.4470   -9.1561 C   0  0  0  0  0  0  0  0  0  0  0  0
   -9.3696    3.8924   -9.7540 C   0  0  0  0  0  0  0  0  0  0  0  0
  -10.5429    3.1413   -9.6612 C   0  0  0  0  0  0  0  0  0  0  0  0
  -11.6288    3.7019  -10.2774 O   0  0  0  0  0  0  0  0  0  0  0  0
  -12.7571    2.8783  -10.5250 C   0  0  0  0  0  0  0  0  0  0  0  0
  -13.7595    2.7743   -9.3796 C   0  0  0  0  0  0  0  0  0  0  0  0
  -13.5831    3.1549   -8.2305 O   0  0  0  0  0  0  0  0  0  0  0  0
  -14.8850    2.1533   -9.8288 O   0  0  0  0  0  0  0  0  0  0  0  0
  -15.8933    1.9225   -8.8337 C   0  0  0  0  0  0  0  0  0  0  0  0
  -15.5502    0.6527   -8.0382 C   0  0  0  0  0  0  0  0  0  0  0  0
  -15.4905   -0.5887   -8.9321 C   0  0  0  0  0  0  0  0  0  0  0  0
  -16.5214   -0.5470  -10.0625 C   0  0  0  0  0  0  0  0  0  0  0  0
  -17.6807    0.3829   -9.7181 C   0  0  0  0  0  0  0  0  0  0  0  0
  -17.1773    1.7505   -9.5480 N   0  0  0  0  0  0  0  0  0  0  0  0
  -18.1332    2.7231   -9.1793 C   0  0  0  0  0  0  0  0  0  0  0  0
  -19.1117    2.5335   -8.1996 C   0  0  0  0  0  0  0  0  0  0  0  0
  -19.9929    3.4779   -7.7862 N   0  0  0  0  0  0  0  0  0  0  0  0
  -19.9112    4.6806   -8.3917 C   0  0  0  0  0  0  0  0  0  0  0  0
  -18.9879    4.9881   -9.3773 C   0  0  0  0  0  0  0  0  0  0  0  0
  -18.0698    4.0106   -9.7572 C   0  0  0  0  0  0  0  0  0  0  0  0
  -17.2107    4.2469  -10.8513 N   0  0  0  0  0  0  0  0  0  0  0  0
  -10.5248    1.9408   -8.9504 C   0  0  0  0  0  0  0  0  0  0  0  0
   -9.3411    1.4937   -8.3474 C   0  0  0  0  0  0  0  0  0  0  0  0
  1  2  1  0
  2  3  1  0
  3  4  2  0
  4  5  1  0
  5  6  2  0
  6  7  1  0
  7  8  1  0
  8  9  1  0
  9 10  2  0
  9 11  1  0
 11 12  1  0
 12 13  1  0
 13 14  1  0
 14 15  1  0
 15 16  1  0
 16 17  1  0
 17 18  1  0
 18 19  2  0
 19 20  1  0
 20 21  2  0
 21 22  1  0
 22 23  2  0
 23 24  1  0
  6 25  1  0
 25 26  2  0
 26  3  1  0
 17 12  1  0
 23 18  1  0
M  END
$$$$
