
     RDKit          3D

 19 20  0  0  0  0  0  0  0  0999 V2000
   10.5539  -49.2290  -15.9849 N   0  0  0  0  0  0  0  0  0  0  0  0
    9.4835  -48.4457  -16.6023 C   0  0  0  0  0  0  0  0  0  0  0  0
    9.9141  -47.0278  -16.9683 C   0  0  0  0  0  0  0  0  0  0  0  0
   10.8607  -46.9750  -18.1526 C   0  0  0  0  0  0  0  0  0  0  0  0
   11.0029  -47.8810  -18.9672 O   0  0  0  0  0  0  0  0  0  0  0  0
   11.5685  -45.6951  -18.3800 C   0  0  0  0  0  0  0  0  0  0  0  0
   11.1631  -44.9606  -19.5053 C   0  0  0  0  0  0  0  0  0  0  0  0
   11.6893  -43.6933  -19.7292 C   0  0  0  0  0  0  0  0  0  0  0  0
   12.6061  -43.1707  -18.8242 C   0  0  0  0  0  0  0  0  0  0  0  0
   13.2438  -41.5919  -19.0782 Cl  0  0  0  0  0  0  0  0  0  0  0  0
   13.0254  -43.9149  -17.7134 C   0  0  0  0  0  0  0  0  0  0  0  0
   12.5419  -45.2120  -17.4736 C   0  0  0  0  0  0  0  0  0  0  0  0
   13.0064  -45.9933  -16.4081 N   0  0  0  0  0  0  0  0  0  0  0  0
   13.4183  -45.3706  -15.1430 C   0  0  0  0  0  0  0  0  0  0  0  0
   14.9310  -45.1741  -15.0663 C   0  0  0  0  0  0  0  0  0  0  0  0
   15.6722  -46.4811  -15.2903 C   0  0  0  0  0  0  0  0  0  0  0  0
   15.2329  -47.0935  -16.5974 C   0  0  0  0  0  0  0  0  0  0  0  0
   16.0528  -47.5531  -17.3925 O   0  0  0  0  0  0  0  0  0  0  0  0
   13.7305  -47.2305  -16.7991 C   0  0  0  0  0  0  0  0  0  0  0  0
  1  2  1  0
  2  3  1  0
  3  4  1  0
  4  5  2  0
  4  6  1  0
  6  7  2  0
  7  8  1  0
  8  9  2  0
  9 10  1  0
  9 11  1  0
 11 12  2  0
 12 13  1  0
 13 14  1  0
 14 15  1  0
 15 16  1  0
 16 17  1  0
 17 18  2  0
 17 19  1  0
 12  6  1  0
 19 13  1  0
M  END
$$$$
