
     RDKit          3D

 19 20  0  0  0  0  0  0  0  0999 V2000
    5.3170    9.0474  -12.3917 N   0  0  0  0  0  0  0  0  0  0  0  0
    4.6777   10.3623  -12.4034 C   0  0  0  0  0  0  0  0  0  0  0  0
    4.0277   10.7093  -11.0712 C   0  0  0  0  0  0  0  0  0  0  0  0
    2.6985   10.0079  -10.8784 C   0  0  0  0  0  0  0  0  0  0  0  0
    2.5405    9.1910   -9.9679 O   0  0  0  0  0  0  0  0  0  0  0  0
    1.5852   10.3371  -11.8586 C   0  0  0  0  0  0  0  0  0  0  0  0
    0.2078   10.1426  -11.2392 C   0  0  0  0  0  0  0  0  0  0  0  0
   -0.0619   11.1390  -10.1253 C   0  0  0  0  0  0  0  0  0  0  0  0
    0.6716   12.1123   -9.9372 O   0  0  0  0  0  0  0  0  0  0  0  0
   -1.2958   10.8942   -9.2769 C   0  0  0  0  0  0  0  0  0  0  0  0
   -2.5461   11.1778  -10.0385 C   0  0  0  0  0  0  0  0  0  0  0  0
   -3.0856   12.4250  -10.2801 C   0  0  0  0  0  0  0  0  0  0  0  0
   -4.2253   12.2658  -11.0196 N   0  0  0  0  0  0  0  0  0  0  0  0
   -4.4387   10.9373  -11.2829 C   0  0  0  0  0  0  0  0  0  0  0  0
   -5.4640   10.3187  -12.0081 C   0  0  0  0  0  0  0  0  0  0  0  0
   -5.4294    8.9231  -12.1230 C   0  0  0  0  0  0  0  0  0  0  0  0
   -4.4094    8.1827  -11.5341 C   0  0  0  0  0  0  0  0  0  0  0  0
   -3.3947    8.8173  -10.8071 C   0  0  0  0  0  0  0  0  0  0  0  0
   -3.4051   10.2247  -10.6768 C   0  0  0  0  0  0  0  0  0  0  0  0
  1  2  1  0
  2  3  1  0
  3  4  1  0
  4  5  2  0
  4  6  1  0
  6  7  1  0
  7  8  1  0
  8  9  2  0
  8 10  1  0
 10 11  1  0
 11 12  2  0
 12 13  1  0
 13 14  1  0
 14 15  2  0
 15 16  1  0
 16 17  2  0
 17 18  1  0
 18 19  2  0
 19 11  1  0
 19 14  1  0
M  END
$$$$
