
     RDKit          3D

 26 28  0  0  0  0  0  0  0  0999 V2000
   61.0136   24.8404   -8.2776 C   0  0  0  0  0  0  0  0  0  0  0  0
   61.5606   25.8446   -9.1523 N   0  0  0  0  0  0  0  0  0  0  0  0
   62.5312   26.7171   -8.7153 C   0  0  0  0  0  0  0  0  0  0  0  0
   63.0508   26.6518   -7.6116 O   0  0  0  0  0  0  0  0  0  0  0  0
   62.9286   27.7455   -9.7531 C   0  0  0  0  0  0  0  0  0  0  0  0
   62.2293   29.0723   -9.5663 C   0  0  0  0  0  0  0  0  0  0  0  0
   62.8367   30.0137   -8.7171 C   0  0  0  0  0  0  0  0  0  0  0  0
   62.2546   31.2599   -8.4849 C   0  0  0  0  0  0  0  0  0  0  0  0
   61.0538   31.5867   -9.1018 C   0  0  0  0  0  0  0  0  0  0  0  0
   60.3816   32.7709   -8.9753 O   0  0  0  0  0  0  0  0  0  0  0  0
   60.9993   33.7735   -8.1779 C   0  0  0  0  0  0  0  0  0  0  0  0
   60.4346   30.6500   -9.9350 C   0  0  0  0  0  0  0  0  0  0  0  0
   60.9891   29.3782  -10.1716 C   0  0  0  0  0  0  0  0  0  0  0  0
   60.3698   28.4324  -11.0377 N   0  0  0  0  0  0  0  0  0  0  0  0
   60.8540   28.6972  -12.4202 C   0  0  0  0  0  0  0  0  0  0  0  0
   60.3382   27.6674  -13.4185 C   0  0  0  0  0  0  0  0  0  0  0  0
   60.8915   27.5124  -14.5233 O   0  0  0  0  0  0  0  0  0  0  0  0
   59.0109   26.9856  -13.1417 C   0  0  0  0  0  0  0  0  0  0  0  0
   58.5412   27.0223  -11.6893 C   0  0  0  0  0  0  0  0  0  0  0  0
   58.8810   28.3649  -10.9984 C   0  0  0  0  0  0  0  0  0  0  0  0
   58.1360   28.5357   -9.7504 N   0  0  0  0  0  0  0  0  0  0  0  0
   56.7383   28.9123   -9.8980 C   0  0  0  0  0  0  0  0  0  0  0  0
   56.2010   29.4173   -8.5601 C   0  0  0  0  0  0  0  0  0  0  0  0
   56.3715   28.4011   -7.4307 C   0  0  0  0  0  0  0  0  0  0  0  0
   57.2068   27.1976   -7.8508 C   0  0  0  0  0  0  0  0  0  0  0  0
   58.4351   27.6013   -8.6697 C   0  0  0  0  0  0  0  0  0  0  0  0
  1  2  1  0
  2  3  1  0
  3  4  2  0
  3  5  1  0
  5  6  1  0
  6  7  2  0
  7  8  1  0
  8  9  2  0
  9 10  1  0
 10 11  1  0
  9 12  1  0
 12 13  2  0
 13 14  1  0
 14 15  1  0
 15 16  1  0
 16 17  2  0
 16 18  1  0
 18 19  1  0
 19 20  1  0
 20 21  1  0
 21 22  1  0
 22 23  1  0
 23 24  1  0
 24 25  1  0
 25 26  1  0
 13  6  1  0
 20 14  1  0
 26 21  1  0
M  END
$$$$
