
     RDKit          3D

 18 19  0  0  0  0  0  0  0  0999 V2000
   44.1997  -40.7316  -33.8758 N   0  0  0  0  0  0  0  0  0  0  0  0
   43.6537  -39.6510  -33.0518 C   0  0  0  0  0  0  0  0  0  0  0  0
   44.0216  -38.2891  -33.6278 C   0  0  0  0  0  0  0  0  0  0  0  0
   43.4594  -37.1783  -32.7626 C   0  0  0  0  0  0  0  0  0  0  0  0
   43.5234  -37.1931  -31.5340 O   0  0  0  0  0  0  0  0  0  0  0  0
   42.9203  -35.9728  -33.4344 C   0  0  0  0  0  0  0  0  0  0  0  0
   43.5139  -34.7474  -33.0890 C   0  0  0  0  0  0  0  0  0  0  0  0
   43.1119  -33.5733  -33.7205 C   0  0  0  0  0  0  0  0  0  0  0  0
   42.1194  -33.6363  -34.6886 C   0  0  0  0  0  0  0  0  0  0  0  0
   41.6926  -32.5145  -35.3370 O   0  0  0  0  0  0  0  0  0  0  0  0
   41.5115  -34.8474  -35.0221 C   0  0  0  0  0  0  0  0  0  0  0  0
   41.8886  -36.0469  -34.3939 C   0  0  0  0  0  0  0  0  0  0  0  0
   41.2282  -37.2608  -34.6619 N   0  0  0  0  0  0  0  0  0  0  0  0
   40.2415  -37.6030  -33.6149 C   0  0  0  0  0  0  0  0  0  0  0  0
   39.2009  -38.6067  -34.1204 C   0  0  0  0  0  0  0  0  0  0  0  0
   39.8201  -39.6467  -35.0463 C   0  0  0  0  0  0  0  0  0  0  0  0
   40.5574  -39.0031  -36.2243 C   0  0  0  0  0  0  0  0  0  0  0  0
   40.7935  -37.5026  -36.0396 C   0  0  0  0  0  0  0  0  0  0  0  0
  1  2  1  0
  2  3  1  0
  3  4  1  0
  4  5  2  0
  4  6  1  0
  6  7  2  0
  7  8  1  0
  8  9  2  0
  9 10  1  0
  9 11  1  0
 11 12  2  0
 12 13  1  0
 13 14  1  0
 14 15  1  0
 15 16  1  0
 16 17  1  0
 17 18  1  0
 12  6  1  0
 18 13  1  0
M  END
$$$$
