
     RDKit          3D

 22 24  0  0  0  0  0  0  0  0999 V2000
   68.8642   48.6403   24.6444 N   0  0  0  0  0  0  0  0  0  0  0  0
   68.8335   48.0246   23.3096 C   0  0  0  0  0  0  0  0  0  0  0  0
   70.2269   48.0303   22.6978 C   0  0  0  0  0  0  0  0  0  0  0  0
   71.0019   48.9801   22.8124 O   0  0  0  0  0  0  0  0  0  0  0  0
   70.6086   46.8968   21.8340 C   0  0  0  0  0  0  0  0  0  0  0  0
   70.7061   47.1836   20.4679 C   0  0  0  0  0  0  0  0  0  0  0  0
   71.0940   46.1684   19.6185 C   0  0  0  0  0  0  0  0  0  0  0  0
   71.3872   44.9242   20.0401 N   0  0  0  0  0  0  0  0  0  0  0  0
   71.3098   44.6940   21.3749 C   0  0  0  0  0  0  0  0  0  0  0  0
   70.9313   45.6276   22.3451 C   0  0  0  0  0  0  0  0  0  0  0  0
   70.8987   45.3315   23.7206 N   0  0  0  0  0  0  0  0  0  0  0  0
   69.6912   44.6087   24.1505 C   0  0  0  0  0  0  0  0  0  0  0  0
   69.7997   43.1002   23.9562 C   0  0  0  0  0  0  0  0  0  0  0  0
   71.1571   42.5450   24.3633 C   0  0  0  0  0  0  0  0  0  0  0  0
   71.9810   43.5696   25.1308 C   0  0  0  0  0  0  0  0  0  0  0  0
   72.1980   44.8925   24.3326 C   0  0  0  0  0  0  0  0  0  0  0  0
   72.9079   45.8123   25.2543 N   0  0  0  0  0  0  0  0  0  0  0  0
   72.7575   47.2211   24.8547 C   0  0  0  0  0  0  0  0  0  0  0  0
   73.7389   48.1815   25.5459 C   0  0  0  0  0  0  0  0  0  0  0  0
   74.2549   47.6105   26.8568 C   0  0  0  0  0  0  0  0  0  0  0  0
   74.9058   46.2464   26.6271 C   0  0  0  0  0  0  0  0  0  0  0  0
   74.3334   45.5018   25.4120 C   0  0  0  0  0  0  0  0  0  0  0  0
  1  2  1  0
  2  3  1  0
  3  4  2  0
  3  5  1  0
  5  6  2  0
  6  7  1  0
  7  8  2  0
  8  9  1  0
  9 10  2  0
 10 11  1  0
 11 12  1  0
 12 13  1  0
 13 14  1  0
 14 15  1  0
 15 16  1  0
 16 17  1  0
 17 18  1  0
 18 19  1  0
 19 20  1  0
 20 21  1  0
 21 22  1  0
 10  5  1  0
 16 11  1  0
 22 17  1  0
M  END
$$$$
