
     RDKit          3D

 27 29  0  0  0  0  0  0  0  0999 V2000
   24.3568    4.1801  -12.0586 N   0  0  0  0  0  0  0  0  0  0  0  0
   25.4357    4.9947  -11.8742 C   0  0  0  0  0  0  0  0  0  0  0  0
   26.3513    4.6432  -11.1364 O   0  0  0  0  0  0  0  0  0  0  0  0
   25.4730    6.3043  -12.5958 C   0  0  0  0  0  0  0  0  0  0  0  0
   26.5731    7.1392  -12.3183 C   0  0  0  0  0  0  0  0  0  0  0  0
   26.7028    8.3816  -12.9405 C   0  0  0  0  0  0  0  0  0  0  0  0
   25.7298    8.7971  -13.8383 C   0  0  0  0  0  0  0  0  0  0  0  0
   25.8414    9.9962  -14.4234 F   0  0  0  0  0  0  0  0  0  0  0  0
   24.6345    7.9928  -14.1334 C   0  0  0  0  0  0  0  0  0  0  0  0
   24.5101    6.7353  -13.5282 C   0  0  0  0  0  0  0  0  0  0  0  0
   23.4086    5.9580  -13.7864 O   0  0  0  0  0  0  0  0  0  0  0  0
   23.2326    5.6889  -15.1744 C   0  0  0  0  0  0  0  0  0  0  0  0
   22.3424    4.5728  -15.2467 N   0  0  0  0  0  0  0  0  0  0  0  0
   21.9891    4.0268  -16.4540 C   0  0  0  0  0  0  0  0  0  0  0  0
   22.5372    4.3413  -17.5057 O   0  0  0  0  0  0  0  0  0  0  0  0
   20.8976    3.0039  -16.4341 C   0  0  0  0  0  0  0  0  0  0  0  0
   20.8065    2.1849  -17.5692 C   0  0  0  0  0  0  0  0  0  0  0  0
   19.8429    1.1960  -17.6021 C   0  0  0  0  0  0  0  0  0  0  0  0
   18.9716    0.9768  -16.5992 N   0  0  0  0  0  0  0  0  0  0  0  0
   19.0718    1.7857  -15.5175 C   0  0  0  0  0  0  0  0  0  0  0  0
   20.0058    2.8173  -15.3569 C   0  0  0  0  0  0  0  0  0  0  0  0
   20.0102    3.6591  -14.2157 N   0  0  0  0  0  0  0  0  0  0  0  0
   19.0306    4.7657  -14.3595 C   0  0  0  0  0  0  0  0  0  0  0  0
   18.2897    5.0569  -13.0536 C   0  0  0  0  0  0  0  0  0  0  0  0
   19.2395    5.1310  -11.8600 C   0  0  0  0  0  0  0  0  0  0  0  0
   20.2182    3.9558  -11.8070 C   0  0  0  0  0  0  0  0  0  0  0  0
   19.9793    2.9432  -12.9276 C   0  0  0  0  0  0  0  0  0  0  0  0
  1  2  1  0
  2  3  2  0
  2  4  1  0
  4  5  2  0
  5  6  1  0
  6  7  2  0
  7  8  1  0
  7  9  1  0
  9 10  2  0
 10 11  1  0
 11 12  1  0
 12 13  1  0
 13 14  1  0
 14 15  2  0
 14 16  1  0
 16 17  2  0
 17 18  1  0
 18 19  2  0
 19 20  1  0
 20 21  2  0
 21 22  1  0
 22 23  1  0
 23 24  1  0
 24 25  1  0
 25 26  1  0
 26 27  1  0
 10  4  1  0
 21 16  1  0
 27 22  1  0
M  END
$$$$
