
     RDKit          3D

 19 20  0  0  0  0  0  0  0  0999 V2000
   13.4089  -12.1176   -7.6288 N   0  0  0  0  0  0  0  0  0  0  0  0
   12.7696  -10.8028   -7.6404 C   0  0  0  0  0  0  0  0  0  0  0  0
   12.1196  -10.4558   -6.3083 C   0  0  0  0  0  0  0  0  0  0  0  0
   10.7904  -11.1571   -6.1154 C   0  0  0  0  0  0  0  0  0  0  0  0
   10.6325  -11.9741   -5.2049 O   0  0  0  0  0  0  0  0  0  0  0  0
    9.6772  -10.8279   -7.0956 C   0  0  0  0  0  0  0  0  0  0  0  0
    8.2997  -11.0224   -6.4763 C   0  0  0  0  0  0  0  0  0  0  0  0
    8.0300  -10.0260   -5.3623 C   0  0  0  0  0  0  0  0  0  0  0  0
    8.7635   -9.0527   -5.1743 O   0  0  0  0  0  0  0  0  0  0  0  0
    6.7961  -10.2708   -4.5139 C   0  0  0  0  0  0  0  0  0  0  0  0
    5.5458   -9.9872   -5.2755 C   0  0  0  0  0  0  0  0  0  0  0  0
    5.0063   -8.7401   -5.5172 C   0  0  0  0  0  0  0  0  0  0  0  0
    3.8667   -8.8993   -6.2567 N   0  0  0  0  0  0  0  0  0  0  0  0
    3.6532  -10.2278   -6.5199 C   0  0  0  0  0  0  0  0  0  0  0  0
    2.6280  -10.8464   -7.2451 C   0  0  0  0  0  0  0  0  0  0  0  0
    2.6625  -12.2420   -7.3600 C   0  0  0  0  0  0  0  0  0  0  0  0
    3.6826  -12.9823   -6.7711 C   0  0  0  0  0  0  0  0  0  0  0  0
    4.6972  -12.3477   -6.0441 C   0  0  0  0  0  0  0  0  0  0  0  0
    4.6868  -10.9403   -5.9139 C   0  0  0  0  0  0  0  0  0  0  0  0
  1  2  1  0
  2  3  1  0
  3  4  1  0
  4  5  2  0
  4  6  1  0
  6  7  1  0
  7  8  1  0
  8  9  2  0
  8 10  1  0
 10 11  1  0
 11 12  2  0
 12 13  1  0
 13 14  1  0
 14 15  2  0
 15 16  1  0
 16 17  2  0
 17 18  1  0
 18 19  2  0
 19 11  1  0
 19 14  1  0
M  END
$$$$
