
     RDKit          3D

 18 19  0  0  0  0  0  0  0  0999 V2000
   10.7140   21.0098  -20.0400 N   0  0  0  0  0  0  0  0  0  0  0  0
   10.1994   22.3687  -19.8864 C   0  0  0  0  0  0  0  0  0  0  0  0
    8.9657   22.6343  -20.7388 C   0  0  0  0  0  0  0  0  0  0  0  0
    7.7458   21.9382  -20.1765 C   0  0  0  0  0  0  0  0  0  0  0  0
    7.3392   20.8794  -20.6594 O   0  0  0  0  0  0  0  0  0  0  0  0
    7.0900   22.5476  -18.9513 C   0  0  0  0  0  0  0  0  0  0  0  0
    5.5687   22.4842  -19.0538 C   0  0  0  0  0  0  0  0  0  0  0  0
    5.0338   23.4455  -20.1002 C   0  0  0  0  0  0  0  0  0  0  0  0
    5.8088   24.1888  -20.7085 O   0  0  0  0  0  0  0  0  0  0  0  0
    3.5911   23.4947  -20.3657 C   0  0  0  0  0  0  0  0  0  0  0  0
    3.0451   24.3291  -21.3287 C   0  0  0  0  0  0  0  0  0  0  0  0
    1.6923   24.1580  -21.3485 N   0  0  0  0  0  0  0  0  0  0  0  0
    1.3210   23.2268  -20.4096 C   0  0  0  0  0  0  0  0  0  0  0  0
    0.0428   22.7515  -20.0884 C   0  0  0  0  0  0  0  0  0  0  0  0
   -0.0624   21.7910  -19.0820 C   0  0  0  0  0  0  0  0  0  0  0  0
    1.0697   21.3258  -18.4241 C   0  0  0  0  0  0  0  0  0  0  0  0
    2.3410   21.8119  -18.7575 C   0  0  0  0  0  0  0  0  0  0  0  0
    2.4867   22.7855  -19.7727 C   0  0  0  0  0  0  0  0  0  0  0  0
  1  2  1  0
  2  3  1  0
  3  4  1  0
  4  5  2  0
  4  6  1  0
  6  7  1  0
  7  8  1  0
  8  9  2  0
  8 10  1  0
 10 11  2  0
 11 12  1  0
 12 13  1  0
 13 14  2  0
 14 15  1  0
 15 16  2  0
 16 17  1  0
 17 18  2  0
 18 10  1  0
 18 13  1  0
M  END
$$$$
