
     RDKit          3D

 19 20  0  0  0  0  0  0  0  0999 V2000
   20.4403    7.0420   -6.5877 N   0  0  0  0  0  0  0  0  0  0  0  0
   20.9474    6.5244   -7.8532 C   0  0  0  0  0  0  0  0  0  0  0  0
   20.9774    7.6033   -8.9254 C   0  0  0  0  0  0  0  0  0  0  0  0
   19.5853    7.9837   -9.3856 C   0  0  0  0  0  0  0  0  0  0  0  0
   18.8285    7.1635   -9.9093 O   0  0  0  0  0  0  0  0  0  0  0  0
   19.1566    9.4108   -9.1958 C   0  0  0  0  0  0  0  0  0  0  0  0
   18.7210    9.7179   -7.7900 C   0  0  0  0  0  0  0  0  0  0  0  0
   19.5144   10.1939   -6.9750 O   0  0  0  0  0  0  0  0  0  0  0  0
   17.2907    9.4019   -7.4133 C   0  0  0  0  0  0  0  0  0  0  0  0
   17.1987    8.0961   -6.6382 C   0  0  0  0  0  0  0  0  0  0  0  0
   15.7784    7.7096   -6.3735 C   0  0  0  0  0  0  0  0  0  0  0  0
   15.0318    8.0296   -5.2568 C   0  0  0  0  0  0  0  0  0  0  0  0
   13.7815    7.4933   -5.4084 N   0  0  0  0  0  0  0  0  0  0  0  0
   13.6898    6.8282   -6.6087 C   0  0  0  0  0  0  0  0  0  0  0  0
   12.6128    6.1393   -7.1795 C   0  0  0  0  0  0  0  0  0  0  0  0
   12.8120    5.5490   -8.4312 C   0  0  0  0  0  0  0  0  0  0  0  0
   14.0392    5.6450   -9.0828 C   0  0  0  0  0  0  0  0  0  0  0  0
   15.1054    6.3378   -8.4978 C   0  0  0  0  0  0  0  0  0  0  0  0
   14.9303    6.9428   -7.2360 C   0  0  0  0  0  0  0  0  0  0  0  0
  1  2  1  0
  2  3  1  0
  3  4  1  0
  4  5  2  0
  4  6  1  0
  6  7  1  0
  7  8  2  0
  7  9  1  0
  9 10  1  0
 10 11  1  0
 11 12  2  0
 12 13  1  0
 13 14  1  0
 14 15  2  0
 15 16  1  0
 16 17  2  0
 17 18  1  0
 18 19  2  0
 19 11  1  0
 19 14  1  0
M  END
$$$$
