
     RDKit          3D

 28 31  0  0  0  0  0  0  0  0999 V2000
  -60.5064   -6.4579   36.4325 N   0  0  0  0  0  0  0  0  0  0  0  0
  -59.2870   -6.2027   35.6668 C   0  0  0  0  0  0  0  0  0  0  0  0
  -58.0729   -6.8215   36.3204 C   0  0  0  0  0  0  0  0  0  0  0  0
  -57.8393   -8.2004   36.1395 C   0  0  0  0  0  0  0  0  0  0  0  0
  -56.7360   -8.8256   36.7193 C   0  0  0  0  0  0  0  0  0  0  0  0
  -55.8682   -8.0745   37.4973 C   0  0  0  0  0  0  0  0  0  0  0  0
  -54.7585   -8.6334   38.0650 O   0  0  0  0  0  0  0  0  0  0  0  0
  -56.0886   -6.7175   37.7064 C   0  0  0  0  0  0  0  0  0  0  0  0
  -57.1765   -6.0623   37.1058 C   0  0  0  0  0  0  0  0  0  0  0  0
  -57.4230   -4.6869   37.3162 N   0  0  0  0  0  0  0  0  0  0  0  0
  -58.0571   -4.5363   38.6578 C   0  0  0  0  0  0  0  0  0  0  0  0
  -58.2697   -3.0708   38.9892 C   0  0  0  0  0  0  0  0  0  0  0  0
  -58.5220   -2.6810   40.1297 O   0  0  0  0  0  0  0  0  0  0  0  0
  -58.2172   -2.1190   37.8270 C   0  0  0  0  0  0  0  0  0  0  0  0
  -56.9317   -2.3021   37.0275 C   0  0  0  0  0  0  0  0  0  0  0  0
  -56.3120   -3.7266   37.0759 C   0  0  0  0  0  0  0  0  0  0  0  0
  -55.5417   -3.9370   35.7275 C   0  0  0  0  0  0  0  0  0  0  0  0
  -54.5077   -4.9831   35.6915 N   0  0  0  0  0  0  0  0  0  0  0  0
  -53.3013   -4.6069   36.4312 C   0  0  0  0  0  0  0  0  0  0  0  0
  -52.2625   -5.6723   36.3037 C   0  0  0  0  0  0  0  0  0  0  0  0
  -51.0630   -5.5527   35.7680 N   0  0  0  0  0  0  0  0  0  0  0  0
  -50.4824   -6.7921   35.8875 C   0  0  0  0  0  0  0  0  0  0  0  0
  -49.2114   -7.2299   35.4881 C   0  0  0  0  0  0  0  0  0  0  0  0
  -48.8534   -8.5631   35.7276 C   0  0  0  0  0  0  0  0  0  0  0  0
  -49.7428   -9.4418   36.3518 C   0  0  0  0  0  0  0  0  0  0  0  0
  -51.0158   -9.0228   36.7565 C   0  0  0  0  0  0  0  0  0  0  0  0
  -51.3452   -7.6894   36.5056 C   0  0  0  0  0  0  0  0  0  0  0  0
  -52.4741   -6.9536   36.7558 N   0  0  0  0  0  0  0  0  0  0  0  0
  1  2  1  0
  2  3  1  0
  3  4  2  0
  4  5  1  0
  5  6  2  0
  6  7  1  0
  6  8  1  0
  8  9  2  0
  9 10  1  0
 10 11  1  0
 11 12  1  0
 12 13  2  0
 12 14  1  0
 14 15  1  0
 15 16  1  0
 16 17  1  0
 17 18  1  0
 18 19  1  0
 19 20  1  0
 20 21  2  0
 21 22  1  0
 22 23  2  0
 23 24  1  0
 24 25  2  0
 25 26  1  0
 26 27  2  0
 27 28  1  0
  9  3  1  0
 16 10  1  0
 28 20  1  0
 27 22  1  0
M  END
$$$$
