
     RDKit          3D

 30 33  0  0  0  0  0  0  0  0999 V2000
  -27.8386    3.9408    7.5568 N   0  0  0  0  0  0  0  0  0  0  0  0
  -27.5414    2.7112    8.3121 C   0  0  0  0  0  0  0  0  0  0  0  0
  -26.8542    1.6790    7.4275 C   0  0  0  0  0  0  0  0  0  0  0  0
  -26.3808    0.2566    8.3844 S   0  0  0  0  0  0  0  0  0  0  0  0
  -25.1797    0.5537    9.1457 O   0  0  0  0  0  0  0  0  0  0  0  0
  -27.5824   -0.1857    9.0788 O   0  0  0  0  0  0  0  0  0  0  0  0
  -25.9707   -1.0440    7.2394 C   0  0  0  0  0  0  0  0  0  0  0  0
  -26.4866   -2.3137    7.5408 C   0  0  0  0  0  0  0  0  0  0  0  0
  -26.2987   -3.3388    6.6373 C   0  0  0  0  0  0  0  0  0  0  0  0
  -25.6509   -3.1778    5.4726 N   0  0  0  0  0  0  0  0  0  0  0  0
  -25.1532   -1.9435    5.2189 C   0  0  0  0  0  0  0  0  0  0  0  0
  -25.2551   -0.8221    6.0562 C   0  0  0  0  0  0  0  0  0  0  0  0
  -24.6639    0.4065    5.7323 N   0  0  0  0  0  0  0  0  0  0  0  0
  -24.7849    0.8385    4.3266 C   0  0  0  0  0  0  0  0  0  0  0  0
  -24.4702    2.3291    4.2188 C   0  0  0  0  0  0  0  0  0  0  0  0
  -23.0998    2.6547    4.8040 C   0  0  0  0  0  0  0  0  0  0  0  0
  -22.9879    2.1406    6.2377 C   0  0  0  0  0  0  0  0  0  0  0  0
  -23.3179    0.6360    6.3555 C   0  0  0  0  0  0  0  0  0  0  0  0
  -22.1961   -0.2761    5.7611 C   0  0  0  0  0  0  0  0  0  0  0  0
  -20.8277    0.0253    6.2068 N   0  0  0  0  0  0  0  0  0  0  0  0
  -20.5964   -0.3640    7.6050 C   0  0  0  0  0  0  0  0  0  0  0  0
  -19.2259    0.0647    8.0158 C   0  0  0  0  0  0  0  0  0  0  0  0
  -18.2371   -0.6939    8.4388 N   0  0  0  0  0  0  0  0  0  0  0  0
  -17.1886    0.1648    8.6731 C   0  0  0  0  0  0  0  0  0  0  0  0
  -15.8916   -0.1049    9.1368 C   0  0  0  0  0  0  0  0  0  0  0  0
  -14.9956    0.9620    9.2846 C   0  0  0  0  0  0  0  0  0  0  0  0
  -15.3829    2.2696    8.9795 C   0  0  0  0  0  0  0  0  0  0  0  0
  -16.6724    2.5571    8.5207 C   0  0  0  0  0  0  0  0  0  0  0  0
  -17.5438    1.4758    8.3813 C   0  0  0  0  0  0  0  0  0  0  0  0
  -18.8438    1.3842    7.9612 N   0  0  0  0  0  0  0  0  0  0  0  0
  1  2  1  0
  2  3  1  0
  3  4  1  0
  4  5  2  0
  4  6  2  0
  4  7  1  0
  7  8  2  0
  8  9  1  0
  9 10  2  0
 10 11  1  0
 11 12  2  0
 12 13  1  0
 13 14  1  0
 14 15  1  0
 15 16  1  0
 16 17  1  0
 17 18  1  0
 18 19  1  0
 19 20  1  0
 20 21  1  0
 21 22  1  0
 22 23  2  0
 23 24  1  0
 24 25  2  0
 25 26  1  0
 26 27  2  0
 27 28  1  0
 28 29  2  0
 29 30  1  0
 12  7  1  0
 18 13  1  0
 30 22  1  0
 29 24  1  0
M  END
$$$$
