
     RDKit          3D

 16 17  0  0  0  0  0  0  0  0999 V2000
   -5.1492   -7.5258   10.4762 N   0  0  0  0  0  0  0  0  0  0  0  0
   -4.5876   -8.6166   11.2614 C   0  0  0  0  0  0  0  0  0  0  0  0
   -5.6840   -9.3042   12.0718 C   0  0  0  0  0  0  0  0  0  0  0  0
   -5.1014  -10.3863   12.9719 C   0  0  0  0  0  0  0  0  0  0  0  0
   -6.1690  -11.2749   13.5801 C   0  0  0  0  0  0  0  0  0  0  0  0
   -6.2177  -12.4745   13.2930 O   0  0  0  0  0  0  0  0  0  0  0  0
   -7.1447  -10.6506   14.5608 C   0  0  0  0  0  0  0  0  0  0  0  0
   -8.4505  -10.3072   13.9228 C   0  0  0  0  0  0  0  0  0  0  0  0
   -9.3173  -11.1931   13.3108 C   0  0  0  0  0  0  0  0  0  0  0  0
  -10.4022  -10.4967   12.8561 N   0  0  0  0  0  0  0  0  0  0  0  0
  -10.2747   -9.1640   13.1674 C   0  0  0  0  0  0  0  0  0  0  0  0
  -11.1370   -8.0926   12.9046 C   0  0  0  0  0  0  0  0  0  0  0  0
  -10.7491   -6.8246   13.3455 C   0  0  0  0  0  0  0  0  0  0  0  0
   -9.5474   -6.6391   14.0231 C   0  0  0  0  0  0  0  0  0  0  0  0
   -8.6977   -7.7219   14.2788 C   0  0  0  0  0  0  0  0  0  0  0  0
   -9.0622   -9.0130   13.8421 C   0  0  0  0  0  0  0  0  0  0  0  0
  1  2  1  0
  2  3  1  0
  3  4  1  0
  4  5  1  0
  5  6  2  0
  5  7  1  0
  7  8  1  0
  8  9  2  0
  9 10  1  0
 10 11  1  0
 11 12  2  0
 12 13  1  0
 13 14  2  0
 14 15  1  0
 15 16  2  0
 16  8  1  0
 16 11  1  0
M  END
$$$$
