
     RDKit          3D

 28 30  0  0  0  0  0  0  0  0999 V2000
   41.6260   15.2669  -28.6632 N   0  0  0  0  0  0  0  0  0  0  0  0
   40.3708   14.8192  -28.9709 C   0  0  0  0  0  0  0  0  0  0  0  0
   39.5025   14.7097  -28.1188 O   0  0  0  0  0  0  0  0  0  0  0  0
   40.1392   14.4927  -30.3940 C   0  0  0  0  0  0  0  0  0  0  0  0
   40.3763   15.5305  -31.3085 C   0  0  0  0  0  0  0  0  0  0  0  0
   40.1606   15.2895  -32.6502 C   0  0  0  0  0  0  0  0  0  0  0  0
   39.7373   14.1070  -33.1280 N   0  0  0  0  0  0  0  0  0  0  0  0
   39.5152   13.1258  -32.2184 C   0  0  0  0  0  0  0  0  0  0  0  0
   39.6850   13.2376  -30.8322 C   0  0  0  0  0  0  0  0  0  0  0  0
   39.4128   12.0973  -30.0549 N   0  0  0  0  0  0  0  0  0  0  0  0
   40.6168   11.5998  -29.3505 C   0  0  0  0  0  0  0  0  0  0  0  0
   40.3590   10.2250  -28.7582 C   0  0  0  0  0  0  0  0  0  0  0  0
   41.2173    9.3412  -28.7568 O   0  0  0  0  0  0  0  0  0  0  0  0
   39.0540   10.0524  -28.0213 C   0  0  0  0  0  0  0  0  0  0  0  0
   37.8995   10.6412  -28.8217 C   0  0  0  0  0  0  0  0  0  0  0  0
   38.1712   12.1071  -29.2273 C   0  0  0  0  0  0  0  0  0  0  0  0
   36.9621   12.6961  -29.9880 C   0  0  0  0  0  0  0  0  0  0  0  0
   35.6976   12.7877  -29.1376 C   0  0  0  0  0  0  0  0  0  0  0  0
   34.6378   13.4813  -29.8471 N   0  0  0  0  0  0  0  0  0  0  0  0
   33.3310   13.3863  -29.4093 C   0  0  0  0  0  0  0  0  0  0  0  0
   32.9758   12.6579  -28.4900 O   0  0  0  0  0  0  0  0  0  0  0  0
   32.3407   14.2628  -30.0950 C   0  0  0  0  0  0  0  0  0  0  0  0
   32.5147   14.6833  -31.4209 C   0  0  0  0  0  0  0  0  0  0  0  0
   31.5560   15.5022  -32.0261 C   0  0  0  0  0  0  0  0  0  0  0  0
   30.4239   15.8932  -31.3113 C   0  0  0  0  0  0  0  0  0  0  0  0
   29.2481   16.9010  -32.0602 Cl  0  0  0  0  0  0  0  0  0  0  0  0
   30.2357   15.4675  -29.9977 C   0  0  0  0  0  0  0  0  0  0  0  0
   31.1915   14.6482  -29.3911 C   0  0  0  0  0  0  0  0  0  0  0  0
  1  2  1  0
  2  3  2  0
  2  4  1  0
  4  5  2  0
  5  6  1  0
  6  7  2  0
  7  8  1  0
  8  9  2  0
  9 10  1  0
 10 11  1  0
 11 12  1  0
 12 13  2  0
 12 14  1  0
 14 15  1  0
 15 16  1  0
 16 17  1  0
 17 18  1  0
 18 19  1  0
 19 20  1  0
 20 21  2  0
 20 22  1  0
 22 23  2  0
 23 24  1  0
 24 25  2  0
 25 26  1  0
 25 27  1  0
 27 28  2  0
  9  4  1  0
 16 10  1  0
 28 22  1  0
M  END
$$$$
