
     RDKit          3D

 28 31  0  0  0  0  0  0  0  0999 V2000
   -4.2950    4.0298    8.9649 N   0  0  0  0  0  0  0  0  0  0  0  0
   -4.0523    5.3694    9.1301 C   0  0  0  0  0  0  0  0  0  0  0  0
   -4.2356    6.1592    8.2136 O   0  0  0  0  0  0  0  0  0  0  0  0
   -3.5790    5.7785   10.4795 C   0  0  0  0  0  0  0  0  0  0  0  0
   -4.3221    5.3455   11.5904 C   0  0  0  0  0  0  0  0  0  0  0  0
   -3.9313    5.7031   12.8791 C   0  0  0  0  0  0  0  0  0  0  0  0
   -2.8051    6.4988   13.0622 C   0  0  0  0  0  0  0  0  0  0  0  0
   -2.0647    6.9350   11.9593 C   0  0  0  0  0  0  0  0  0  0  0  0
   -2.4255    6.5770   10.6467 C   0  0  0  0  0  0  0  0  0  0  0  0
   -1.6722    7.0074    9.5336 N   0  0  0  0  0  0  0  0  0  0  0  0
   -2.1344    8.3705    9.1381 C   0  0  0  0  0  0  0  0  0  0  0  0
   -1.4394    8.8164    7.8648 C   0  0  0  0  0  0  0  0  0  0  0  0
   -1.5620    9.9558    7.4137 O   0  0  0  0  0  0  0  0  0  0  0  0
   -0.5981    7.7739    7.1818 C   0  0  0  0  0  0  0  0  0  0  0  0
    0.4021    7.2018    8.1792 C   0  0  0  0  0  0  0  0  0  0  0  0
   -0.1908    6.8726    9.5792 C   0  0  0  0  0  0  0  0  0  0  0  0
    0.2624    5.4416   10.0179 C   0  0  0  0  0  0  0  0  0  0  0  0
    1.7217    5.2300   10.0736 N   0  0  0  0  0  0  0  0  0  0  0  0
    2.3234    5.8833   11.2433 C   0  0  0  0  0  0  0  0  0  0  0  0
    3.8095    5.9879   11.1164 C   0  0  0  0  0  0  0  0  0  0  0  0
    4.5378    7.0732   11.3090 N   0  0  0  0  0  0  0  0  0  0  0  0
    5.8390    6.6939   11.0842 C   0  0  0  0  0  0  0  0  0  0  0  0
    7.0176    7.4525   11.1317 C   0  0  0  0  0  0  0  0  0  0  0  0
    8.2373    6.8147   10.8640 C   0  0  0  0  0  0  0  0  0  0  0  0
    8.2814    5.4512   10.5563 C   0  0  0  0  0  0  0  0  0  0  0  0
    7.1142    4.6801   10.4988 C   0  0  0  0  0  0  0  0  0  0  0  0
    5.9140    5.3405   10.7706 C   0  0  0  0  0  0  0  0  0  0  0  0
    4.6102    4.9175   10.7934 N   0  0  0  0  0  0  0  0  0  0  0  0
  1  2  1  0
  2  3  2  0
  2  4  1  0
  4  5  2  0
  5  6  1  0
  6  7  2  0
  7  8  1  0
  8  9  2  0
  9 10  1  0
 10 11  1  0
 11 12  1  0
 12 13  2  0
 12 14  1  0
 14 15  1  0
 15 16  1  0
 16 17  1  0
 17 18  1  0
 18 19  1  0
 19 20  1  0
 20 21  2  0
 21 22  1  0
 22 23  2  0
 23 24  1  0
 24 25  2  0
 25 26  1  0
 26 27  2  0
 27 28  1  0
  9  4  1  0
 16 10  1  0
 28 20  1  0
 27 22  1  0
M  END
$$$$
