
     RDKit          3D

 18 19  0  0  0  0  0  0  0  0999 V2000
    1.1371   22.8638    8.8234 N   0  0  0  0  0  0  0  0  0  0  0  0
    0.6225   24.2227    8.9770 C   0  0  0  0  0  0  0  0  0  0  0  0
   -0.6112   24.4884    8.1245 C   0  0  0  0  0  0  0  0  0  0  0  0
   -1.8311   23.7922    8.6869 C   0  0  0  0  0  0  0  0  0  0  0  0
   -2.2377   22.7335    8.2040 O   0  0  0  0  0  0  0  0  0  0  0  0
   -2.4869   24.4017    9.9120 C   0  0  0  0  0  0  0  0  0  0  0  0
   -4.0082   24.3383    9.8095 C   0  0  0  0  0  0  0  0  0  0  0  0
   -4.5431   25.2996    8.7631 C   0  0  0  0  0  0  0  0  0  0  0  0
   -3.7681   26.0428    8.1548 O   0  0  0  0  0  0  0  0  0  0  0  0
   -5.9858   25.3487    8.4976 C   0  0  0  0  0  0  0  0  0  0  0  0
   -6.5318   26.1831    7.5346 C   0  0  0  0  0  0  0  0  0  0  0  0
   -7.8846   26.0121    7.5148 N   0  0  0  0  0  0  0  0  0  0  0  0
   -8.2559   25.0808    8.4537 C   0  0  0  0  0  0  0  0  0  0  0  0
   -9.5341   24.6055    8.7749 C   0  0  0  0  0  0  0  0  0  0  0  0
   -9.6393   23.6451    9.7813 C   0  0  0  0  0  0  0  0  0  0  0  0
   -8.5072   23.1798   10.4392 C   0  0  0  0  0  0  0  0  0  0  0  0
   -7.2359   23.6659   10.1058 C   0  0  0  0  0  0  0  0  0  0  0  0
   -7.0902   24.6395    9.0907 C   0  0  0  0  0  0  0  0  0  0  0  0
  1  2  1  0
  2  3  1  0
  3  4  1  0
  4  5  2  0
  4  6  1  0
  6  7  1  0
  7  8  1  0
  8  9  2  0
  8 10  1  0
 10 11  2  0
 11 12  1  0
 12 13  1  0
 13 14  2  0
 14 15  1  0
 15 16  2  0
 16 17  1  0
 17 18  2  0
 18 10  1  0
 18 13  1  0
M  END
$$$$
