
     RDKit          3D

 19 20  0  0  0  0  0  0  0  0999 V2000
   51.2195   27.2147    6.9437 C   0  0  0  0  0  0  0  0  0  0  0  0
   50.9628   26.3021    5.8631 N   0  0  0  0  0  0  0  0  0  0  0  0
   52.0048   25.7121    5.1795 C   0  0  0  0  0  0  0  0  0  0  0  0
   53.1834   26.0241    5.3263 O   0  0  0  0  0  0  0  0  0  0  0  0
   51.5537   24.6414    4.2069 C   0  0  0  0  0  0  0  0  0  0  0  0
   51.3966   23.2845    4.8570 C   0  0  0  0  0  0  0  0  0  0  0  0
   52.4423   22.3549    4.7105 C   0  0  0  0  0  0  0  0  0  0  0  0
   52.3573   21.0786    5.2685 C   0  0  0  0  0  0  0  0  0  0  0  0
   51.2205   20.7091    5.9771 C   0  0  0  0  0  0  0  0  0  0  0  0
   50.9934   19.4894    6.5552 O   0  0  0  0  0  0  0  0  0  0  0  0
   52.0309   18.5231    6.4428 C   0  0  0  0  0  0  0  0  0  0  0  0
   50.1831   21.6346    6.1388 C   0  0  0  0  0  0  0  0  0  0  0  0
   50.2559   22.9384    5.6152 C   0  0  0  0  0  0  0  0  0  0  0  0
   49.2088   23.8791    5.7846 N   0  0  0  0  0  0  0  0  0  0  0  0
   48.1697   23.6962    4.7569 C   0  0  0  0  0  0  0  0  0  0  0  0
   47.3360   24.9778    4.6715 C   0  0  0  0  0  0  0  0  0  0  0  0
   47.1207   25.6490    6.0312 C   0  0  0  0  0  0  0  0  0  0  0  0
   47.2935   24.6636    7.1793 C   0  0  0  0  0  0  0  0  0  0  0  0
   48.6681   23.9802    7.1628 C   0  0  0  0  0  0  0  0  0  0  0  0
  1  2  1  0
  2  3  1  0
  3  4  2  0
  3  5  1  0
  5  6  1  0
  6  7  2  0
  7  8  1  0
  8  9  2  0
  9 10  1  0
 10 11  1  0
  9 12  1  0
 12 13  2  0
 13 14  1  0
 14 15  1  0
 15 16  1  0
 16 17  1  0
 17 18  1  0
 18 19  1  0
 13  6  1  0
 19 14  1  0
M  END
$$$$
