
     RDKit          3D

 27 29  0  0  0  0  0  0  0  0999 V2000
  -10.5525   -8.5148   19.7885 N   0  0  0  0  0  0  0  0  0  0  0  0
  -10.2186   -7.5464   18.8069 C   0  0  0  0  0  0  0  0  0  0  0  0
  -10.1350   -6.2051   19.2003 C   0  0  0  0  0  0  0  0  0  0  0  0
   -9.9767   -5.2270   18.2324 C   0  0  0  0  0  0  0  0  0  0  0  0
   -9.9367   -5.4829   16.9135 N   0  0  0  0  0  0  0  0  0  0  0  0
  -10.0739   -6.7822   16.5516 C   0  0  0  0  0  0  0  0  0  0  0  0
  -10.2027   -7.8647   17.4325 C   0  0  0  0  0  0  0  0  0  0  0  0
  -10.3099   -9.1598   16.8998 N   0  0  0  0  0  0  0  0  0  0  0  0
   -9.2578  -10.1781   17.1383 C   0  0  0  0  0  0  0  0  0  0  0  0
   -7.8826   -9.6404   17.5723 C   0  0  0  0  0  0  0  0  0  0  0  0
   -7.1339   -8.9647   16.4239 C   0  0  0  0  0  0  0  0  0  0  0  0
   -5.9119   -8.3449   16.9041 N   0  0  0  0  0  0  0  0  0  0  0  0
   -4.6916   -8.5688   16.2981 C   0  0  0  0  0  0  0  0  0  0  0  0
   -4.5099   -9.3680   15.3867 O   0  0  0  0  0  0  0  0  0  0  0  0
   -3.5552   -7.7496   16.8013 C   0  0  0  0  0  0  0  0  0  0  0  0
   -2.5262   -7.4152   15.9094 C   0  0  0  0  0  0  0  0  0  0  0  0
   -1.4393   -6.6520   16.3450 C   0  0  0  0  0  0  0  0  0  0  0  0
   -1.3771   -6.2335   17.6744 C   0  0  0  0  0  0  0  0  0  0  0  0
   -0.0410   -5.2932   18.2116 Cl  0  0  0  0  0  0  0  0  0  0  0  0
   -2.3894   -6.5744   18.5733 C   0  0  0  0  0  0  0  0  0  0  0  0
   -3.4796   -7.3352   18.1391 C   0  0  0  0  0  0  0  0  0  0  0  0
   -9.7667  -11.2615   18.1013 C   0  0  0  0  0  0  0  0  0  0  0  0
  -10.9439  -12.0187   17.4997 C   0  0  0  0  0  0  0  0  0  0  0  0
  -11.8237  -11.1307   16.6532 C   0  0  0  0  0  0  0  0  0  0  0  0
  -12.6625  -11.6096   15.8832 O   0  0  0  0  0  0  0  0  0  0  0  0
  -11.7047   -9.6112   16.8510 C   0  0  0  0  0  0  0  0  0  0  0  0
  -12.3604   -8.9444   15.7800 O   0  0  0  0  0  0  0  0  0  0  0  0
  1  2  1  0
  2  3  2  0
  3  4  1  0
  4  5  2  0
  5  6  1  0
  6  7  2  0
  7  8  1  0
  8  9  1  0
  9 10  1  0
 10 11  1  0
 11 12  1  0
 12 13  1  0
 13 14  2  0
 13 15  1  0
 15 16  2  0
 16 17  1  0
 17 18  2  0
 18 19  1  0
 18 20  1  0
 20 21  2  0
  9 22  1  0
 22 23  1  0
 23 24  1  0
 24 25  2  0
 24 26  1  0
 26 27  1  0
  7  2  1  0
 26  8  1  0
 21 15  1  0
M  END
$$$$
