
     RDKit          3D

 16 17  0  0  0  0  0  0  0  0999 V2000
  -16.2929    8.7647   -2.4030 N   0  0  0  0  0  0  0  0  0  0  0  0
  -15.7313    7.6739   -1.6178 C   0  0  0  0  0  0  0  0  0  0  0  0
  -16.8277    6.9862   -0.8074 C   0  0  0  0  0  0  0  0  0  0  0  0
  -16.2452    5.9041    0.0927 C   0  0  0  0  0  0  0  0  0  0  0  0
  -17.3127    5.0155    0.7009 C   0  0  0  0  0  0  0  0  0  0  0  0
  -17.3614    3.8159    0.4138 O   0  0  0  0  0  0  0  0  0  0  0  0
  -18.2884    5.6398    1.6816 C   0  0  0  0  0  0  0  0  0  0  0  0
  -19.5942    5.9833    1.0437 C   0  0  0  0  0  0  0  0  0  0  0  0
  -20.4611    5.0973    0.4316 C   0  0  0  0  0  0  0  0  0  0  0  0
  -21.5460    5.7937   -0.0230 N   0  0  0  0  0  0  0  0  0  0  0  0
  -21.4184    7.1264    0.2882 C   0  0  0  0  0  0  0  0  0  0  0  0
  -22.2807    8.1978    0.0255 C   0  0  0  0  0  0  0  0  0  0  0  0
  -21.8928    9.4658    0.4663 C   0  0  0  0  0  0  0  0  0  0  0  0
  -20.6911    9.6513    1.1439 C   0  0  0  0  0  0  0  0  0  0  0  0
  -19.8414    8.5685    1.3996 C   0  0  0  0  0  0  0  0  0  0  0  0
  -20.2060    7.2774    0.9630 C   0  0  0  0  0  0  0  0  0  0  0  0
  1  2  1  0
  2  3  1  0
  3  4  1  0
  4  5  1  0
  5  6  2  0
  5  7  1  0
  7  8  1  0
  8  9  2  0
  9 10  1  0
 10 11  1  0
 11 12  2  0
 12 13  1  0
 13 14  2  0
 14 15  1  0
 15 16  2  0
 16  8  1  0
 16 11  1  0
M  END
$$$$
