
     RDKit          3D

 18 19  0  0  0  0  0  0  0  0999 V2000
   -7.5867   12.0262   17.9565 N   0  0  0  0  0  0  0  0  0  0  0  0
   -8.4074   10.9840   17.3503 C   0  0  0  0  0  0  0  0  0  0  0  0
   -8.3047    9.6924   18.1633 C   0  0  0  0  0  0  0  0  0  0  0  0
   -9.0515    8.5292   17.5116 C   0  0  0  0  0  0  0  0  0  0  0  0
  -10.5665    8.6417   17.5833 C   0  0  0  0  0  0  0  0  0  0  0  0
  -11.1352    9.5509   18.1862 O   0  0  0  0  0  0  0  0  0  0  0  0
  -11.3415    7.5435   16.8680 C   0  0  0  0  0  0  0  0  0  0  0  0
  -12.8550    7.7104   16.9861 C   0  0  0  0  0  0  0  0  0  0  0  0
  -13.3835    8.8508   16.1110 C   0  0  0  0  0  0  0  0  0  0  0  0
  -14.8119    9.1394   16.4142 C   0  0  0  0  0  0  0  0  0  0  0  0
  -15.8667    8.6623   15.7872 N   0  0  0  0  0  0  0  0  0  0  0  0
  -16.9525    9.2081   16.4286 C   0  0  0  0  0  0  0  0  0  0  0  0
  -18.3217    9.0410   16.1761 C   0  0  0  0  0  0  0  0  0  0  0  0
  -19.2423    9.7171   16.9874 C   0  0  0  0  0  0  0  0  0  0  0  0
  -18.8080   10.5421   18.0284 C   0  0  0  0  0  0  0  0  0  0  0  0
  -17.4454   10.7211   18.2955 C   0  0  0  0  0  0  0  0  0  0  0  0
  -16.5507   10.0359   17.4710 C   0  0  0  0  0  0  0  0  0  0  0  0
  -15.1819    9.9753   17.4403 N   0  0  0  0  0  0  0  0  0  0  0  0
  1  2  1  0
  2  3  1  0
  3  4  1  0
  4  5  1  0
  5  6  2  0
  5  7  1  0
  7  8  1  0
  8  9  1  0
  9 10  1  0
 10 11  2  0
 11 12  1  0
 12 13  2  0
 13 14  1  0
 14 15  2  0
 15 16  1  0
 16 17  2  0
 17 18  1  0
 18 10  1  0
 17 12  1  0
M  END
$$$$
