
     RDKit          3D

 28 31  0  0  0  0  0  0  0  0999 V2000
   23.0609  -16.2332  -42.4511 N   0  0  0  0  0  0  0  0  0  0  0  0
   23.3036  -14.8936  -42.2859 C   0  0  0  0  0  0  0  0  0  0  0  0
   23.1202  -14.1038  -43.2024 O   0  0  0  0  0  0  0  0  0  0  0  0
   23.7768  -14.4845  -40.9366 C   0  0  0  0  0  0  0  0  0  0  0  0
   23.0337  -14.9175  -39.8257 C   0  0  0  0  0  0  0  0  0  0  0  0
   23.4246  -14.5599  -38.5370 C   0  0  0  0  0  0  0  0  0  0  0  0
   24.5507  -13.7642  -38.3539 C   0  0  0  0  0  0  0  0  0  0  0  0
   25.2911  -13.3280  -39.4567 C   0  0  0  0  0  0  0  0  0  0  0  0
   24.9303  -13.6860  -40.7693 C   0  0  0  0  0  0  0  0  0  0  0  0
   25.6836  -13.2556  -41.8825 N   0  0  0  0  0  0  0  0  0  0  0  0
   25.2214  -11.8925  -42.2780 C   0  0  0  0  0  0  0  0  0  0  0  0
   25.9164  -11.4466  -43.5512 C   0  0  0  0  0  0  0  0  0  0  0  0
   25.7938  -10.3072  -44.0023 O   0  0  0  0  0  0  0  0  0  0  0  0
   26.7578  -12.4891  -44.2343 C   0  0  0  0  0  0  0  0  0  0  0  0
   27.7579  -13.0612  -43.2369 C   0  0  0  0  0  0  0  0  0  0  0  0
   27.1650  -13.3904  -41.8369 C   0  0  0  0  0  0  0  0  0  0  0  0
   27.6182  -14.8214  -41.3982 C   0  0  0  0  0  0  0  0  0  0  0  0
   29.0775  -15.0330  -41.3425 N   0  0  0  0  0  0  0  0  0  0  0  0
   29.6793  -14.3797  -40.1728 C   0  0  0  0  0  0  0  0  0  0  0  0
   31.1653  -14.2751  -40.2997 C   0  0  0  0  0  0  0  0  0  0  0  0
   31.8936  -13.1898  -40.1071 N   0  0  0  0  0  0  0  0  0  0  0  0
   33.1948  -13.5691  -40.3318 C   0  0  0  0  0  0  0  0  0  0  0  0
   34.3734  -12.8105  -40.2843 C   0  0  0  0  0  0  0  0  0  0  0  0
   35.5931  -13.4483  -40.5521 C   0  0  0  0  0  0  0  0  0  0  0  0
   35.6373  -14.8117  -40.8598 C   0  0  0  0  0  0  0  0  0  0  0  0
   34.4701  -15.5829  -40.9173 C   0  0  0  0  0  0  0  0  0  0  0  0
   33.2698  -14.9225  -40.6455 C   0  0  0  0  0  0  0  0  0  0  0  0
   31.9660  -15.3455  -40.6227 N   0  0  0  0  0  0  0  0  0  0  0  0
  1  2  1  0
  2  3  2  0
  2  4  1  0
  4  5  2  0
  5  6  1  0
  6  7  2  0
  7  8  1  0
  8  9  2  0
  9 10  1  0
 10 11  1  0
 11 12  1  0
 12 13  2  0
 12 14  1  0
 14 15  1  0
 15 16  1  0
 16 17  1  0
 17 18  1  0
 18 19  1  0
 19 20  1  0
 20 21  2  0
 21 22  1  0
 22 23  2  0
 23 24  1  0
 24 25  2  0
 25 26  1  0
 26 27  2  0
 27 28  1  0
  9  4  1  0
 16 10  1  0
 28 20  1  0
 27 22  1  0
M  END
$$$$
