
     RDKit          3D

 19 20  0  0  0  0  0  0  0  0999 V2000
   32.1743   -3.6307   47.2391 N   0  0  0  0  0  0  0  0  0  0  0  0
   31.5350   -2.3159   47.2275 C   0  0  0  0  0  0  0  0  0  0  0  0
   30.8850   -1.9689   48.5596 C   0  0  0  0  0  0  0  0  0  0  0  0
   29.5558   -2.6702   48.7525 C   0  0  0  0  0  0  0  0  0  0  0  0
   29.3978   -3.4872   49.6630 O   0  0  0  0  0  0  0  0  0  0  0  0
   28.4425   -2.3410   47.7723 C   0  0  0  0  0  0  0  0  0  0  0  0
   27.0651   -2.5355   48.3916 C   0  0  0  0  0  0  0  0  0  0  0  0
   26.7954   -1.5391   49.5056 C   0  0  0  0  0  0  0  0  0  0  0  0
   27.5289   -0.5659   49.6937 O   0  0  0  0  0  0  0  0  0  0  0  0
   25.5615   -1.7839   50.3540 C   0  0  0  0  0  0  0  0  0  0  0  0
   24.3112   -1.5003   49.5924 C   0  0  0  0  0  0  0  0  0  0  0  0
   23.7717   -0.2532   49.3507 C   0  0  0  0  0  0  0  0  0  0  0  0
   22.6320   -0.4124   48.6112 N   0  0  0  0  0  0  0  0  0  0  0  0
   22.4186   -1.7409   48.3480 C   0  0  0  0  0  0  0  0  0  0  0  0
   21.3933   -2.3595   47.6228 C   0  0  0  0  0  0  0  0  0  0  0  0
   21.4279   -3.7551   47.5079 C   0  0  0  0  0  0  0  0  0  0  0  0
   22.4479   -4.4954   48.0968 C   0  0  0  0  0  0  0  0  0  0  0  0
   23.4625   -3.8608   48.8238 C   0  0  0  0  0  0  0  0  0  0  0  0
   23.4522   -2.4534   48.9540 C   0  0  0  0  0  0  0  0  0  0  0  0
  1  2  1  0
  2  3  1  0
  3  4  1  0
  4  5  2  0
  4  6  1  0
  6  7  1  0
  7  8  1  0
  8  9  2  0
  8 10  1  0
 10 11  1  0
 11 12  2  0
 12 13  1  0
 13 14  1  0
 14 15  2  0
 15 16  1  0
 16 17  2  0
 17 18  1  0
 18 19  2  0
 19 11  1  0
 19 14  1  0
M  END
$$$$
