
     RDKit          3D

 23 25  0  0  0  0  0  0  0  0999 V2000
   33.5719   -3.8085  -50.2299 N   0  0  0  0  0  0  0  0  0  0  0  0
   34.7589   -3.7443  -49.5444 C   0  0  0  0  0  0  0  0  0  0  0  0
   35.8055   -3.5558  -50.1514 O   0  0  0  0  0  0  0  0  0  0  0  0
   34.6663   -3.8592  -48.0569 C   0  0  0  0  0  0  0  0  0  0  0  0
   33.7535   -4.8147  -47.5559 C   0  0  0  0  0  0  0  0  0  0  0  0
   33.6142   -5.0156  -46.1860 C   0  0  0  0  0  0  0  0  0  0  0  0
   34.3896   -4.2671  -45.3175 C   0  0  0  0  0  0  0  0  0  0  0  0
   34.2601   -4.4468  -43.9959 F   0  0  0  0  0  0  0  0  0  0  0  0
   35.3047   -3.3291  -45.7922 C   0  0  0  0  0  0  0  0  0  0  0  0
   35.4787   -3.0974  -47.1729 C   0  0  0  0  0  0  0  0  0  0  0  0
   36.3995   -2.1287  -47.6258 N   0  0  0  0  0  0  0  0  0  0  0  0
   35.8067   -0.8286  -47.9497 C   0  0  0  0  0  0  0  0  0  0  0  0
   35.1514   -0.9318  -49.1973 O   0  0  0  0  0  0  0  0  0  0  0  0
   36.8552    0.2767  -48.0888 C   0  0  0  0  0  0  0  0  0  0  0  0
   37.6969    0.4365  -46.8286 C   0  0  0  0  0  0  0  0  0  0  0  0
   37.8128   -0.8803  -46.0613 C   0  0  0  0  0  0  0  0  0  0  0  0
   37.7563   -2.1139  -47.0075 C   0  0  0  0  0  0  0  0  0  0  0  0
   38.9154   -2.1516  -47.9318 N   0  0  0  0  0  0  0  0  0  0  0  0
   38.7894   -3.2627  -48.8966 C   0  0  0  0  0  0  0  0  0  0  0  0
   40.0220   -4.1646  -49.0194 C   0  0  0  0  0  0  0  0  0  0  0  0
   41.3026   -3.3691  -49.2147 C   0  0  0  0  0  0  0  0  0  0  0  0
   41.3445   -2.1218  -48.3336 C   0  0  0  0  0  0  0  0  0  0  0  0
   40.2279   -2.0955  -47.2878 C   0  0  0  0  0  0  0  0  0  0  0  0
  1  2  1  0
  2  3  2  0
  2  4  1  0
  4  5  2  0
  5  6  1  0
  6  7  2  0
  7  8  1  0
  7  9  1  0
  9 10  2  0
 10 11  1  0
 11 12  1  0
 12 13  1  0
 12 14  1  0
 14 15  1  0
 15 16  1  0
 16 17  1  0
 17 18  1  0
 18 19  1  0
 19 20  1  0
 20 21  1  0
 21 22  1  0
 22 23  1  0
 10  4  1  0
 17 11  1  0
 23 18  1  0
M  END
$$$$
