
     RDKit          3D

 16 17  0  0  0  0  0  0  0  0999 V2000
   40.8679   20.9424  -56.3932 N   0  0  0  0  0  0  0  0  0  0  0  0
   42.2235   20.7123  -56.8809 C   0  0  0  0  0  0  0  0  0  0  0  0
   42.6752   19.2571  -56.7480 C   0  0  0  0  0  0  0  0  0  0  0  0
   42.8177   18.8026  -55.2931 C   0  0  0  0  0  0  0  0  0  0  0  0
   43.4022   17.4112  -55.1941 C   0  0  0  0  0  0  0  0  0  0  0  0
   42.5380   16.3064  -55.1858 C   0  0  0  0  0  0  0  0  0  0  0  0
   43.0740   15.0315  -55.0981 C   0  0  0  0  0  0  0  0  0  0  0  0
   44.3942   14.7777  -55.0192 N   0  0  0  0  0  0  0  0  0  0  0  0
   45.2107   15.8583  -55.0368 C   0  0  0  0  0  0  0  0  0  0  0  0
   44.7896   17.1915  -55.1332 C   0  0  0  0  0  0  0  0  0  0  0  0
   45.6786   18.2832  -55.1420 N   0  0  0  0  0  0  0  0  0  0  0  0
   46.3158   18.5006  -53.8391 C   0  0  0  0  0  0  0  0  0  0  0  0
   46.8901   19.9195  -53.8022 C   0  0  0  0  0  0  0  0  0  0  0  0
   47.4796   20.3664  -55.1437 C   0  0  0  0  0  0  0  0  0  0  0  0
   47.8234   19.1768  -56.0312 C   0  0  0  0  0  0  0  0  0  0  0  0
   46.6005   18.2896  -56.2937 C   0  0  0  0  0  0  0  0  0  0  0  0
  1  2  1  0
  2  3  1  0
  3  4  1  0
  4  5  1  0
  5  6  2  0
  6  7  1  0
  7  8  2  0
  8  9  1  0
  9 10  2  0
 10 11  1  0
 11 12  1  0
 12 13  1  0
 13 14  1  0
 14 15  1  0
 15 16  1  0
 10  5  1  0
 16 11  1  0
M  END
$$$$
