
     RDKit          3D

 24 26  0  0  0  0  0  0  0  0999 V2000
    0.0039   10.6611   -7.8057 C   0  0  0  0  0  0  0  0  0  0  0  0
    0.9356   11.6924   -8.1057 O   0  0  0  0  0  0  0  0  0  0  0  0
    0.9335   12.7847   -7.2828 C   0  0  0  0  0  0  0  0  0  0  0  0
    0.0875   12.9970   -6.2040 C   0  0  0  0  0  0  0  0  0  0  0  0
    0.1996   14.1718   -5.4571 C   0  0  0  0  0  0  0  0  0  0  0  0
    1.1600   15.1610   -5.7635 C   0  0  0  0  0  0  0  0  0  0  0  0
    1.1385   16.4126   -4.9138 C   0  0  0  0  0  0  0  0  0  0  0  0
   -0.0385   17.3274   -5.2778 C   0  0  0  0  0  0  0  0  0  0  0  0
    0.0078   18.5755   -4.5164 N   0  0  0  0  0  0  0  0  0  0  0  0
    2.0407   14.9412   -6.8402 C   0  0  0  0  0  0  0  0  0  0  0  0
    3.0708   15.7961   -7.2601 N   0  0  0  0  0  0  0  0  0  0  0  0
    2.5896   17.0065   -7.9425 C   0  0  0  0  0  0  0  0  0  0  0  0
    3.7327   17.6845   -8.6814 C   0  0  0  0  0  0  0  0  0  0  0  0
    3.5704   18.2532   -9.7629 O   0  0  0  0  0  0  0  0  0  0  0  0
    5.0475   17.7816   -7.9433 C   0  0  0  0  0  0  0  0  0  0  0  0
    5.3945   16.4632   -7.2611 C   0  0  0  0  0  0  0  0  0  0  0  0
    4.2302   15.9698   -6.3573 C   0  0  0  0  0  0  0  0  0  0  0  0
    4.6560   14.8638   -5.4890 N   0  0  0  0  0  0  0  0  0  0  0  0
    5.3761   15.2867   -4.2869 C   0  0  0  0  0  0  0  0  0  0  0  0
    6.1702   14.1547   -3.6205 C   0  0  0  0  0  0  0  0  0  0  0  0
    5.4657   12.8141   -3.7787 C   0  0  0  0  0  0  0  0  0  0  0  0
    5.2059   12.4938   -5.2536 C   0  0  0  0  0  0  0  0  0  0  0  0
    5.2670   13.7272   -6.1624 C   0  0  0  0  0  0  0  0  0  0  0  0
    1.8899   13.7549   -7.5894 C   0  0  0  0  0  0  0  0  0  0  0  0
  1  2  1  0
  2  3  1  0
  3  4  2  0
  4  5  1  0
  5  6  2  0
  6  7  1  0
  7  8  1  0
  8  9  1  0
  6 10  1  0
 10 11  1  0
 11 12  1  0
 12 13  1  0
 13 14  2  0
 13 15  1  0
 15 16  1  0
 16 17  1  0
 17 18  1  0
 18 19  1  0
 19 20  1  0
 20 21  1  0
 21 22  1  0
 22 23  1  0
 10 24  2  0
 24  3  1  0
 17 11  1  0
 23 18  1  0
M  END
$$$$
