
     RDKit          3D

 26 28  0  0  0  0  0  0  0  0999 V2000
   16.5755  -21.3868  -17.1505 C   0  0  0  0  0  0  0  0  0  0  0  0
   17.1226  -20.3827  -18.0252 N   0  0  0  0  0  0  0  0  0  0  0  0
   18.0932  -19.5101  -17.5882 C   0  0  0  0  0  0  0  0  0  0  0  0
   18.6128  -19.5754  -16.4845 O   0  0  0  0  0  0  0  0  0  0  0  0
   18.4906  -18.4818  -18.6260 C   0  0  0  0  0  0  0  0  0  0  0  0
   17.7913  -17.1550  -18.4393 C   0  0  0  0  0  0  0  0  0  0  0  0
   18.3987  -16.2136  -17.5900 C   0  0  0  0  0  0  0  0  0  0  0  0
   17.8166  -14.9674  -17.3578 C   0  0  0  0  0  0  0  0  0  0  0  0
   16.6158  -14.6406  -17.9747 C   0  0  0  0  0  0  0  0  0  0  0  0
   15.9436  -13.4564  -17.8482 O   0  0  0  0  0  0  0  0  0  0  0  0
   16.5613  -12.4537  -17.0509 C   0  0  0  0  0  0  0  0  0  0  0  0
   15.9966  -15.5772  -18.8079 C   0  0  0  0  0  0  0  0  0  0  0  0
   16.5511  -16.8490  -19.0445 C   0  0  0  0  0  0  0  0  0  0  0  0
   15.9318  -17.7949  -19.9107 N   0  0  0  0  0  0  0  0  0  0  0  0
   16.4160  -17.5301  -21.2932 C   0  0  0  0  0  0  0  0  0  0  0  0
   15.9002  -18.5599  -22.2915 C   0  0  0  0  0  0  0  0  0  0  0  0
   16.4535  -18.7148  -23.3963 O   0  0  0  0  0  0  0  0  0  0  0  0
   14.5729  -19.2416  -22.0146 C   0  0  0  0  0  0  0  0  0  0  0  0
   14.1031  -19.2049  -20.5622 C   0  0  0  0  0  0  0  0  0  0  0  0
   14.4430  -17.8624  -19.8713 C   0  0  0  0  0  0  0  0  0  0  0  0
   13.6980  -17.6915  -18.6233 N   0  0  0  0  0  0  0  0  0  0  0  0
   12.3002  -17.3150  -18.7710 C   0  0  0  0  0  0  0  0  0  0  0  0
   11.7630  -16.8099  -17.4331 C   0  0  0  0  0  0  0  0  0  0  0  0
   11.9334  -17.8261  -16.3037 C   0  0  0  0  0  0  0  0  0  0  0  0
   12.7688  -19.0297  -16.7237 C   0  0  0  0  0  0  0  0  0  0  0  0
   13.9970  -18.6260  -17.5426 C   0  0  0  0  0  0  0  0  0  0  0  0
  1  2  1  0
  2  3  1  0
  3  4  2  0
  3  5  1  0
  5  6  1  0
  6  7  2  0
  7  8  1  0
  8  9  2  0
  9 10  1  0
 10 11  1  0
  9 12  1  0
 12 13  2  0
 13 14  1  0
 14 15  1  0
 15 16  1  0
 16 17  2  0
 16 18  1  0
 18 19  1  0
 19 20  1  0
 20 21  1  0
 21 22  1  0
 22 23  1  0
 23 24  1  0
 24 25  1  0
 25 26  1  0
 13  6  1  0
 20 14  1  0
 26 21  1  0
M  END
$$$$
