
     RDKit          3D

 26 28  0  0  0  0  0  0  0  0999 V2000
   16.8725  -13.8345   12.3834 C   0  0  0  0  0  0  0  0  0  0  0  0
   18.2160  -13.6203   11.8700 N   0  0  0  0  0  0  0  0  0  0  0  0
   19.2645  -14.1171   12.7744 C   0  0  0  0  0  0  0  0  0  0  0  0
   19.3881  -15.6268   12.8233 C   0  0  0  0  0  0  0  0  0  0  0  0
   18.6721  -16.3370   13.8057 C   0  0  0  0  0  0  0  0  0  0  0  0
   18.7479  -17.7284   13.8938 C   0  0  0  0  0  0  0  0  0  0  0  0
   19.5347  -18.4345   12.9918 C   0  0  0  0  0  0  0  0  0  0  0  0
   19.7183  -19.7903   12.9757 O   0  0  0  0  0  0  0  0  0  0  0  0
   18.8730  -20.5590   13.8237 C   0  0  0  0  0  0  0  0  0  0  0  0
   20.2497  -17.7359   12.0139 C   0  0  0  0  0  0  0  0  0  0  0  0
   20.2119  -16.3343   11.9226 C   0  0  0  0  0  0  0  0  0  0  0  0
   20.9420  -15.6525   10.9528 N   0  0  0  0  0  0  0  0  0  0  0  0
   20.2539  -15.5970    9.6517 C   0  0  0  0  0  0  0  0  0  0  0  0
   21.1996  -15.8708    8.4815 C   0  0  0  0  0  0  0  0  0  0  0  0
   22.1401  -17.0265    8.7944 C   0  0  0  0  0  0  0  0  0  0  0  0
   22.9535  -16.7961   10.0782 C   0  0  0  0  0  0  0  0  0  0  0  0
   22.4198  -15.6283   10.9475 C   0  0  0  0  0  0  0  0  0  0  0  0
   23.2157  -15.2902   12.1486 N   0  0  0  0  0  0  0  0  0  0  0  0
   24.5586  -14.7874   11.8398 C   0  0  0  0  0  0  0  0  0  0  0  0
   25.2002  -14.1177   13.0558 C   0  0  0  0  0  0  0  0  0  0  0  0
   25.2274  -15.0439   14.2622 C   0  0  0  0  0  0  0  0  0  0  0  0
   23.8327  -15.5942   14.5407 C   0  0  0  0  0  0  0  0  0  0  0  0
   23.1830  -16.2200   13.2921 C   0  0  0  0  0  0  0  0  0  0  0  0
   23.8285  -17.5963   13.0338 C   0  0  0  0  0  0  0  0  0  0  0  0
   23.1846  -18.6596   13.6098 N   0  0  0  0  0  0  0  0  0  0  0  0
   24.8728  -17.7893   12.4171 O   0  0  0  0  0  0  0  0  0  0  0  0
  1  2  1  0
  2  3  1  0
  3  4  1  0
  4  5  2  0
  5  6  1  0
  6  7  2  0
  7  8  1  0
  8  9  1  0
  7 10  1  0
 10 11  2  0
 11 12  1  0
 12 13  1  0
 13 14  1  0
 14 15  1  0
 15 16  1  0
 16 17  1  0
 17 18  1  0
 18 19  1  0
 19 20  1  0
 20 21  1  0
 21 22  1  0
 22 23  1  0
 23 24  1  0
 24 25  1  0
 24 26  2  0
 11  4  1  0
 17 12  1  0
 23 18  1  0
M  END
$$$$
