
     RDKit          3D

 27 29  0  0  0  0  0  0  0  0999 V2000
  -20.0604   11.6890   -1.5724 N   0  0  0  0  0  0  0  0  0  0  0  0
  -21.0114   12.6304   -1.0032 C   0  0  0  0  0  0  0  0  0  0  0  0
  -21.7738   13.4158   -2.0472 C   0  0  0  0  0  0  0  0  0  0  0  0
  -23.1452   13.0788   -2.1831 C   0  0  0  0  0  0  0  0  0  0  0  0
  -23.9567   13.6746   -3.1413 C   0  0  0  0  0  0  0  0  0  0  0  0
  -23.3964   14.6094   -3.9869 C   0  0  0  0  0  0  0  0  0  0  0  0
  -24.1345   15.2254   -4.9548 O   0  0  0  0  0  0  0  0  0  0  0  0
  -22.0501   14.9557   -3.8786 C   0  0  0  0  0  0  0  0  0  0  0  0
  -21.1966   14.3914   -2.9025 C   0  0  0  0  0  0  0  0  0  0  0  0
  -19.8335   14.7674   -2.8162 N   0  0  0  0  0  0  0  0  0  0  0  0
  -19.1797   15.1919   -4.0770 C   0  0  0  0  0  0  0  0  0  0  0  0
  -19.3439   16.6862   -4.3306 C   0  0  0  0  0  0  0  0  0  0  0  0
  -19.1393   17.1901   -5.4357 O   0  0  0  0  0  0  0  0  0  0  0  0
  -19.7601   17.5317   -3.1493 C   0  0  0  0  0  0  0  0  0  0  0  0
  -19.0683   16.9935   -1.9107 C   0  0  0  0  0  0  0  0  0  0  0  0
  -19.4332   15.5228   -1.5938 C   0  0  0  0  0  0  0  0  0  0  0  0
  -18.2583   14.8503   -0.8160 C   0  0  0  0  0  0  0  0  0  0  0  0
  -16.9796   14.7824   -1.5136 N   0  0  0  0  0  0  0  0  0  0  0  0
  -16.6059   13.6752   -2.2465 C   0  0  0  0  0  0  0  0  0  0  0  0
  -17.3260   12.7017   -2.4280 O   0  0  0  0  0  0  0  0  0  0  0  0
  -15.2597   13.7267   -2.8801 C   0  0  0  0  0  0  0  0  0  0  0  0
  -15.0651   13.0294   -4.0805 C   0  0  0  0  0  0  0  0  0  0  0  0
  -13.8194   13.0502   -4.7131 C   0  0  0  0  0  0  0  0  0  0  0  0
  -12.7655   13.7591   -4.1399 C   0  0  0  0  0  0  0  0  0  0  0  0
  -11.2303   13.7850   -4.9150 Cl  0  0  0  0  0  0  0  0  0  0  0  0
  -12.9441   14.4417   -2.9365 C   0  0  0  0  0  0  0  0  0  0  0  0
  -14.1903   14.4238   -2.3019 C   0  0  0  0  0  0  0  0  0  0  0  0
  1  2  1  0
  2  3  1  0
  3  4  2  0
  4  5  1  0
  5  6  2  0
  6  7  1  0
  6  8  1  0
  8  9  2  0
  9 10  1  0
 10 11  1  0
 11 12  1  0
 12 13  2  0
 12 14  1  0
 14 15  1  0
 15 16  1  0
 16 17  1  0
 17 18  1  0
 18 19  1  0
 19 20  2  0
 19 21  1  0
 21 22  2  0
 22 23  1  0
 23 24  2  0
 24 25  1  0
 24 26  1  0
 26 27  2  0
  9  3  1  0
 16 10  1  0
 27 21  1  0
M  END
$$$$
