
     RDKit          3D

 19 20  0  0  0  0  0  0  0  0999 V2000
  -19.3295    0.1186    8.6588 C   0  0  0  0  0  0  0  0  0  0  0  0
  -20.7748    0.2827    8.6762 N   0  0  0  0  0  0  0  0  0  0  0  0
  -21.4626   -0.9693    8.3184 C   0  0  0  0  0  0  0  0  0  0  0  0
  -22.8747   -0.6446    7.8228 C   0  0  0  0  0  0  0  0  0  0  0  0
  -23.1386    0.4304    7.2786 O   0  0  0  0  0  0  0  0  0  0  0  0
  -23.9407   -1.6878    7.9341 C   0  0  0  0  0  0  0  0  0  0  0  0
  -23.6574   -3.0153    8.2594 C   0  0  0  0  0  0  0  0  0  0  0  0
  -24.6939   -3.9429    8.3214 C   0  0  0  0  0  0  0  0  0  0  0  0
  -26.0084   -3.5458    8.0464 C   0  0  0  0  0  0  0  0  0  0  0  0
  -26.9746   -4.5265    8.0817 O   0  0  0  0  0  0  0  0  0  0  0  0
  -26.9923   -5.2302    6.8354 C   0  0  0  0  0  0  0  0  0  0  0  0
  -26.3481   -2.2060    7.7432 C   0  0  0  0  0  0  0  0  0  0  0  0
  -27.6660   -1.8040    7.5003 N   0  0  0  0  0  0  0  0  0  0  0  0
  -28.6979   -2.3173    8.4235 C   0  0  0  0  0  0  0  0  0  0  0  0
  -29.7961   -1.2804    8.6865 C   0  0  0  0  0  0  0  0  0  0  0  0
  -29.1935    0.0957    8.9536 C   0  0  0  0  0  0  0  0  0  0  0  0
  -28.2941    0.5619    7.8036 C   0  0  0  0  0  0  0  0  0  0  0  0
  -27.9765   -0.5530    6.8066 C   0  0  0  0  0  0  0  0  0  0  0  0
  -25.2718   -1.3028    7.6775 C   0  0  0  0  0  0  0  0  0  0  0  0
  1  2  1  0
  2  3  1  0
  3  4  1  0
  4  5  2  0
  4  6  1  0
  6  7  2  0
  7  8  1  0
  8  9  2  0
  9 10  1  0
 10 11  1  0
  9 12  1  0
 12 13  1  0
 13 14  1  0
 14 15  1  0
 15 16  1  0
 16 17  1  0
 17 18  1  0
 12 19  2  0
 19  6  1  0
 18 13  1  0
M  END
$$$$
