
     RDKit          3D

 19 20  0  0  0  0  0  0  0  0999 V2000
  -50.6249   -4.2179   17.0221 N   0  0  0  0  0  0  0  0  0  0  0  0
  -51.2642   -2.9030   17.0104 C   0  0  0  0  0  0  0  0  0  0  0  0
  -51.9141   -2.5560   18.3426 C   0  0  0  0  0  0  0  0  0  0  0  0
  -53.2433   -3.2574   18.5354 C   0  0  0  0  0  0  0  0  0  0  0  0
  -53.4013   -4.0743   19.4459 O   0  0  0  0  0  0  0  0  0  0  0  0
  -54.3566   -2.9282   17.5552 C   0  0  0  0  0  0  0  0  0  0  0  0
  -55.7341   -3.1227   18.1746 C   0  0  0  0  0  0  0  0  0  0  0  0
  -56.0038   -2.1263   19.2885 C   0  0  0  0  0  0  0  0  0  0  0  0
  -55.2702   -1.1530   19.4766 O   0  0  0  0  0  0  0  0  0  0  0  0
  -57.2376   -2.3711   20.1369 C   0  0  0  0  0  0  0  0  0  0  0  0
  -58.4879   -2.0875   19.3753 C   0  0  0  0  0  0  0  0  0  0  0  0
  -59.0275   -0.8403   19.1337 C   0  0  0  0  0  0  0  0  0  0  0  0
  -60.1671   -0.9996   18.3942 N   0  0  0  0  0  0  0  0  0  0  0  0
  -60.3805   -2.3280   18.1309 C   0  0  0  0  0  0  0  0  0  0  0  0
  -61.4058   -2.9466   17.4057 C   0  0  0  0  0  0  0  0  0  0  0  0
  -61.3713   -4.3422   17.2908 C   0  0  0  0  0  0  0  0  0  0  0  0
  -60.3512   -5.0826   17.8797 C   0  0  0  0  0  0  0  0  0  0  0  0
  -59.3366   -4.4480   18.6067 C   0  0  0  0  0  0  0  0  0  0  0  0
  -59.3470   -3.0406   18.7369 C   0  0  0  0  0  0  0  0  0  0  0  0
  1  2  1  0
  2  3  1  0
  3  4  1  0
  4  5  2  0
  4  6  1  0
  6  7  1  0
  7  8  1  0
  8  9  2  0
  8 10  1  0
 10 11  1  0
 11 12  2  0
 12 13  1  0
 13 14  1  0
 14 15  2  0
 15 16  1  0
 16 17  2  0
 17 18  1  0
 18 19  2  0
 19 11  1  0
 19 14  1  0
M  END
$$$$
