
     RDKit          3D

 22 24  0  0  0  0  0  0  0  0999 V2000
   14.8415   -9.0509  -49.5134 N   0  0  0  0  0  0  0  0  0  0  0  0
   14.8108   -9.6666  -50.8483 C   0  0  0  0  0  0  0  0  0  0  0  0
   16.2041   -9.6609  -51.4600 C   0  0  0  0  0  0  0  0  0  0  0  0
   16.9792   -8.7110  -51.3454 O   0  0  0  0  0  0  0  0  0  0  0  0
   16.5859  -10.7944  -52.3238 C   0  0  0  0  0  0  0  0  0  0  0  0
   16.6834  -10.5076  -53.6899 C   0  0  0  0  0  0  0  0  0  0  0  0
   17.0712  -11.5228  -54.5393 C   0  0  0  0  0  0  0  0  0  0  0  0
   17.3645  -12.7670  -54.1177 N   0  0  0  0  0  0  0  0  0  0  0  0
   17.2871  -12.9972  -52.7830 C   0  0  0  0  0  0  0  0  0  0  0  0
   16.9086  -12.0636  -51.8128 C   0  0  0  0  0  0  0  0  0  0  0  0
   16.8760  -12.3596  -50.4373 N   0  0  0  0  0  0  0  0  0  0  0  0
   15.6685  -13.0825  -50.0073 C   0  0  0  0  0  0  0  0  0  0  0  0
   15.7770  -14.5910  -50.2016 C   0  0  0  0  0  0  0  0  0  0  0  0
   17.1343  -15.1462  -49.7945 C   0  0  0  0  0  0  0  0  0  0  0  0
   17.9583  -14.1216  -49.0270 C   0  0  0  0  0  0  0  0  0  0  0  0
   18.1752  -12.7987  -49.8252 C   0  0  0  0  0  0  0  0  0  0  0  0
   18.8852  -11.8789  -48.9035 N   0  0  0  0  0  0  0  0  0  0  0  0
   18.7348  -10.4700  -49.3032 C   0  0  0  0  0  0  0  0  0  0  0  0
   19.7162   -9.5097  -48.6119 C   0  0  0  0  0  0  0  0  0  0  0  0
   20.2321  -10.0807  -47.3011 C   0  0  0  0  0  0  0  0  0  0  0  0
   20.8831  -11.4448  -47.5307 C   0  0  0  0  0  0  0  0  0  0  0  0
   20.3107  -12.1894  -48.7459 C   0  0  0  0  0  0  0  0  0  0  0  0
  1  2  1  0
  2  3  1  0
  3  4  2  0
  3  5  1  0
  5  6  2  0
  6  7  1  0
  7  8  2  0
  8  9  1  0
  9 10  2  0
 10 11  1  0
 11 12  1  0
 12 13  1  0
 13 14  1  0
 14 15  1  0
 15 16  1  0
 16 17  1  0
 17 18  1  0
 18 19  1  0
 19 20  1  0
 20 21  1  0
 21 22  1  0
 10  5  1  0
 16 11  1  0
 22 17  1  0
M  END
$$$$
