
     RDKit          3D

 19 20  0  0  0  0  0  0  0  0999 V2000
  -10.0458   -1.3239   -8.2969 C   0  0  0  0  0  0  0  0  0  0  0  0
   -9.3254   -1.3173   -9.5643 N   0  0  0  0  0  0  0  0  0  0  0  0
   -7.9571   -1.8618   -9.4289 C   0  0  0  0  0  0  0  0  0  0  0  0
   -7.9218   -3.4084   -9.2962 C   0  0  0  0  0  0  0  0  0  0  0  0
   -6.4812   -3.9331   -9.2916 C   0  0  0  0  0  0  0  0  0  0  0  0
   -5.8584   -3.8620   -7.9091 C   0  0  0  0  0  0  0  0  0  0  0  0
   -6.2348   -3.0384   -7.0672 O   0  0  0  0  0  0  0  0  0  0  0  0
   -4.7825   -4.8794   -7.5761 C   0  0  0  0  0  0  0  0  0  0  0  0
   -3.6644   -4.8873   -8.5652 C   0  0  0  0  0  0  0  0  0  0  0  0
   -3.3646   -5.9002   -9.4567 C   0  0  0  0  0  0  0  0  0  0  0  0
   -2.2444   -5.5364  -10.1576 N   0  0  0  0  0  0  0  0  0  0  0  0
   -1.8245   -4.2873   -9.7708 C   0  0  0  0  0  0  0  0  0  0  0  0
   -0.7457   -3.5176  -10.2233 C   0  0  0  0  0  0  0  0  0  0  0  0
   -0.5452   -2.2696   -9.6267 C   0  0  0  0  0  0  0  0  0  0  0  0
   -1.3885   -1.8134   -8.6166 C   0  0  0  0  0  0  0  0  0  0  0  0
   -2.4639   -2.5957   -8.1766 C   0  0  0  0  0  0  0  0  0  0  0  0
   -2.6901   -3.8573   -8.7648 C   0  0  0  0  0  0  0  0  0  0  0  0
   -8.6230   -3.9534  -10.4362 O   0  0  0  0  0  0  0  0  0  0  0  0
   -9.2431   -5.2056  -10.1644 C   0  0  0  0  0  0  0  0  0  0  0  0
  1  2  1  0
  2  3  1  0
  3  4  1  0
  4  5  1  0
  5  6  1  0
  6  7  2  0
  6  8  1  0
  8  9  1  0
  9 10  2  0
 10 11  1  0
 11 12  1  0
 12 13  2  0
 13 14  1  0
 14 15  2  0
 15 16  1  0
 16 17  2  0
  4 18  1  0
 18 19  1  0
 17  9  1  0
 17 12  1  0
M  END
$$$$
