
     RDKit          3D

 22 23  0  0  0  0  0  0  0  0999 V2000
    5.6316    7.8756  -63.9164 N   0  0  0  0  0  0  0  0  0  0  0  0
    4.7016    8.0260  -65.0311 C   0  0  0  0  0  0  0  0  0  0  0  0
    3.6134    9.0385  -64.6762 C   0  0  0  0  0  0  0  0  0  0  0  0
    2.6590    9.3378  -65.8378 C   0  0  0  0  0  0  0  0  0  0  0  0
    1.7945    8.1374  -66.2380 C   0  0  0  0  0  0  0  0  0  0  0  0
    0.8249    8.4480  -67.3862 C   0  0  0  0  0  0  0  0  0  0  0  0
   -0.2754    9.4251  -67.0249 C   0  0  0  0  0  0  0  0  0  0  0  0
   -0.1663   10.7562  -67.4713 C   0  0  0  0  0  0  0  0  0  0  0  0
   -1.1370   11.7011  -67.1463 C   0  0  0  0  0  0  0  0  0  0  0  0
   -2.2230   11.3181  -66.3628 C   0  0  0  0  0  0  0  0  0  0  0  0
   -3.4796   12.4947  -65.9730 S   0  0  0  0  0  0  0  0  0  0  0  0
   -2.9210   13.1349  -64.5250 N   0  0  0  0  0  0  0  0  0  0  0  0
   -3.4342   13.5776  -66.9278 O   0  0  0  0  0  0  0  0  0  0  0  0
   -4.7045   11.7998  -65.6513 O   0  0  0  0  0  0  0  0  0  0  0  0
   -2.3572    9.9989  -65.9227 C   0  0  0  0  0  0  0  0  0  0  0  0
   -1.3859    9.0372  -66.2413 C   0  0  0  0  0  0  0  0  0  0  0  0
   -1.5200    7.6985  -65.8266 N   0  0  0  0  0  0  0  0  0  0  0  0
   -1.6741    7.4949  -64.3742 C   0  0  0  0  0  0  0  0  0  0  0  0
   -3.0292    6.8878  -64.0226 C   0  0  0  0  0  0  0  0  0  0  0  0
   -3.2662    5.5659  -64.7537 C   0  0  0  0  0  0  0  0  0  0  0  0
   -2.6272    5.5347  -66.1431 C   0  0  0  0  0  0  0  0  0  0  0  0
   -2.4326    6.9408  -66.7016 C   0  0  0  0  0  0  0  0  0  0  0  0
  1  2  1  0
  2  3  1  0
  3  4  1  0
  4  5  1  0
  5  6  1  0
  6  7  1  0
  7  8  2  0
  8  9  1  0
  9 10  2  0
 10 11  1  0
 11 12  1  0
 11 13  2  0
 11 14  2  0
 10 15  1  0
 15 16  2  0
 16 17  1  0
 17 18  1  0
 18 19  1  0
 19 20  1  0
 20 21  1  0
 21 22  1  0
 16  7  1  0
 22 17  1  0
M  END
$$$$
