
     RDKit          3D

 19 20  0  0  0  0  0  0  0  0999 V2000
  -29.1030   -3.3538   21.2756 N   0  0  0  0  0  0  0  0  0  0  0  0
  -28.5960   -3.8714   20.0101 C   0  0  0  0  0  0  0  0  0  0  0  0
  -28.5659   -2.7925   18.9379 C   0  0  0  0  0  0  0  0  0  0  0  0
  -29.9580   -2.4120   18.4777 C   0  0  0  0  0  0  0  0  0  0  0  0
  -30.7148   -3.2322   17.9540 O   0  0  0  0  0  0  0  0  0  0  0  0
  -30.3867   -0.9850   18.6675 C   0  0  0  0  0  0  0  0  0  0  0  0
  -30.8224   -0.6779   20.0733 C   0  0  0  0  0  0  0  0  0  0  0  0
  -30.0289   -0.2019   20.8883 O   0  0  0  0  0  0  0  0  0  0  0  0
  -32.2526   -0.9938   20.4500 C   0  0  0  0  0  0  0  0  0  0  0  0
  -32.3446   -2.2997   21.2251 C   0  0  0  0  0  0  0  0  0  0  0  0
  -33.7649   -2.6861   21.4898 C   0  0  0  0  0  0  0  0  0  0  0  0
  -34.5115   -2.3662   22.6065 C   0  0  0  0  0  0  0  0  0  0  0  0
  -35.7618   -2.9025   22.4549 N   0  0  0  0  0  0  0  0  0  0  0  0
  -35.8536   -3.5676   21.2546 C   0  0  0  0  0  0  0  0  0  0  0  0
  -36.9305   -4.2565   20.6837 C   0  0  0  0  0  0  0  0  0  0  0  0
  -36.7313   -4.8468   19.4321 C   0  0  0  0  0  0  0  0  0  0  0  0
  -35.5041   -4.7507   18.7805 C   0  0  0  0  0  0  0  0  0  0  0  0
  -34.4379   -4.0580   19.3654 C   0  0  0  0  0  0  0  0  0  0  0  0
  -34.6130   -3.4530   20.6273 C   0  0  0  0  0  0  0  0  0  0  0  0
  1  2  1  0
  2  3  1  0
  3  4  1  0
  4  5  2  0
  4  6  1  0
  6  7  1  0
  7  8  2  0
  7  9  1  0
  9 10  1  0
 10 11  1  0
 11 12  2  0
 12 13  1  0
 13 14  1  0
 14 15  2  0
 15 16  1  0
 16 17  2  0
 17 18  1  0
 18 19  2  0
 19 11  1  0
 19 14  1  0
M  END
$$$$
