
     RDKit          3D

 15 16  0  0  0  0  0  0  0  0999 V2000
   14.1262   -3.1802    9.4584 N   0  0  0  0  0  0  0  0  0  0  0  0
   14.5376   -4.5488    9.1618 C   0  0  0  0  0  0  0  0  0  0  0  0
   13.3647   -5.5185    9.3131 C   0  0  0  0  0  0  0  0  0  0  0  0
   13.7894   -6.9548    9.0010 C   0  0  0  0  0  0  0  0  0  0  0  0
   12.7252   -8.0131    9.3211 C   0  0  0  0  0  0  0  0  0  0  0  0
   11.5283   -8.0435    8.3659 C   0  0  0  0  0  0  0  0  0  0  0  0
   10.5221   -6.9757    8.6295 C   0  0  0  0  0  0  0  0  0  0  0  0
   10.0845   -6.5702    9.8042 N   0  0  0  0  0  0  0  0  0  0  0  0
    9.1809   -5.5706    9.5408 C   0  0  0  0  0  0  0  0  0  0  0  0
    8.4261   -4.7864   10.4243 C   0  0  0  0  0  0  0  0  0  0  0  0
    7.5658   -3.8165    9.8937 C   0  0  0  0  0  0  0  0  0  0  0  0
    7.4595   -3.6328    8.5125 C   0  0  0  0  0  0  0  0  0  0  0  0
    8.2047   -4.4074    7.6153 C   0  0  0  0  0  0  0  0  0  0  0  0
    9.0541   -5.3656    8.1722 C   0  0  0  0  0  0  0  0  0  0  0  0
    9.9098   -6.2798    7.6147 N   0  0  0  0  0  0  0  0  0  0  0  0
  1  2  1  0
  2  3  1  0
  3  4  1  0
  4  5  1  0
  5  6  1  0
  6  7  1  0
  7  8  2  0
  8  9  1  0
  9 10  2  0
 10 11  1  0
 11 12  2  0
 12 13  1  0
 13 14  2  0
 14 15  1  0
 15  7  1  0
 14  9  1  0
M  END
$$$$
