
     RDKit          3D

 19 20  0  0  0  0  0  0  0  0999 V2000
   -6.9863    9.1359   -2.7939 N   0  0  0  0  0  0  0  0  0  0  0  0
   -6.4793    8.6182   -4.0594 C   0  0  0  0  0  0  0  0  0  0  0  0
   -6.4493    9.6971   -5.1316 C   0  0  0  0  0  0  0  0  0  0  0  0
   -7.8413   10.0776   -5.5918 C   0  0  0  0  0  0  0  0  0  0  0  0
   -8.5981    9.2574   -6.1155 O   0  0  0  0  0  0  0  0  0  0  0  0
   -8.2700   11.5046   -5.4020 C   0  0  0  0  0  0  0  0  0  0  0  0
   -8.7057   11.8117   -3.9962 C   0  0  0  0  0  0  0  0  0  0  0  0
   -7.9122   12.2878   -3.1813 O   0  0  0  0  0  0  0  0  0  0  0  0
  -10.1359   11.4958   -3.6196 C   0  0  0  0  0  0  0  0  0  0  0  0
  -10.2280   10.1900   -2.8445 C   0  0  0  0  0  0  0  0  0  0  0  0
  -11.6482    9.8035   -2.5797 C   0  0  0  0  0  0  0  0  0  0  0  0
  -12.3949   10.1234   -1.4630 C   0  0  0  0  0  0  0  0  0  0  0  0
  -13.6452    9.5871   -1.6147 N   0  0  0  0  0  0  0  0  0  0  0  0
  -13.7369    8.9221   -2.8149 C   0  0  0  0  0  0  0  0  0  0  0  0
  -14.8138    8.2331   -3.3858 C   0  0  0  0  0  0  0  0  0  0  0  0
  -14.6146    7.6428   -4.6374 C   0  0  0  0  0  0  0  0  0  0  0  0
  -13.3874    7.7389   -5.2890 C   0  0  0  0  0  0  0  0  0  0  0  0
  -12.3212    8.4317   -4.7041 C   0  0  0  0  0  0  0  0  0  0  0  0
  -12.4964    9.0367   -3.4423 C   0  0  0  0  0  0  0  0  0  0  0  0
  1  2  1  0
  2  3  1  0
  3  4  1  0
  4  5  2  0
  4  6  1  0
  6  7  1  0
  7  8  2  0
  7  9  1  0
  9 10  1  0
 10 11  1  0
 11 12  2  0
 12 13  1  0
 13 14  1  0
 14 15  2  0
 15 16  1  0
 16 17  2  0
 17 18  1  0
 18 19  2  0
 19 11  1  0
 19 14  1  0
M  END
$$$$
