
     RDKit          3D

 27 29  0  0  0  0  0  0  0  0999 V2000
   -7.8597    2.8786  -12.5584 N   0  0  0  0  0  0  0  0  0  0  0  0
   -6.6630    2.1519  -12.9876 C   0  0  0  0  0  0  0  0  0  0  0  0
   -6.0463    1.4272  -11.7861 C   0  0  0  0  0  0  0  0  0  0  0  0
   -4.8776    0.5168  -12.1734 C   0  0  0  0  0  0  0  0  0  0  0  0
   -3.6383    1.3108  -12.5420 C   0  0  0  0  0  0  0  0  0  0  0  0
   -3.5447    1.9658  -13.5818 O   0  0  0  0  0  0  0  0  0  0  0  0
   -2.5223    1.3502  -11.5703 C   0  0  0  0  0  0  0  0  0  0  0  0
   -2.2219    2.6138  -11.0340 C   0  0  0  0  0  0  0  0  0  0  0  0
   -1.1752    2.7583  -10.1235 C   0  0  0  0  0  0  0  0  0  0  0  0
   -0.4347    1.6406   -9.7469 C   0  0  0  0  0  0  0  0  0  0  0  0
    0.8668    1.8202   -8.6408 Cl  0  0  0  0  0  0  0  0  0  0  0  0
   -0.7280    0.3795  -10.2779 C   0  0  0  0  0  0  0  0  0  0  0  0
   -1.7588    0.2135  -11.2285 C   0  0  0  0  0  0  0  0  0  0  0  0
   -2.0212   -1.1527  -11.8306 C   0  0  0  0  0  0  0  0  0  0  0  0
   -0.7754   -1.9386  -12.1975 C   0  0  0  0  0  0  0  0  0  0  0  0
   -0.2018   -2.6446  -11.3609 O   0  0  0  0  0  0  0  0  0  0  0  0
   -0.2369   -1.8009  -13.6178 C   0  0  0  0  0  0  0  0  0  0  0  0
    1.0616   -1.1397  -13.6308 N   0  0  0  0  0  0  0  0  0  0  0  0
    1.0178    0.2575  -13.5327 C   0  0  0  0  0  0  0  0  0  0  0  0
   -0.0093    0.9510  -14.0926 N   0  0  0  0  0  0  0  0  0  0  0  0
   -0.0313    2.2981  -13.9736 C   0  0  0  0  0  0  0  0  0  0  0  0
    0.8518    3.0943  -13.3291 N   0  0  0  0  0  0  0  0  0  0  0  0
    1.8367    2.3639  -12.7907 C   0  0  0  0  0  0  0  0  0  0  0  0
    2.8871    2.8215  -12.0473 N   0  0  0  0  0  0  0  0  0  0  0  0
    3.6387    1.7384  -11.6836 C   0  0  0  0  0  0  0  0  0  0  0  0
    3.1331    0.6131  -12.1432 N   0  0  0  0  0  0  0  0  0  0  0  0
    2.0030    0.9917  -12.8426 C   0  0  0  0  0  0  0  0  0  0  0  0
  1  2  1  0
  2  3  1  0
  3  4  1  0
  4  5  1  0
  5  6  2  0
  5  7  1  0
  7  8  2  0
  8  9  1  0
  9 10  2  0
 10 11  1  0
 10 12  1  0
 12 13  2  0
 13 14  1  0
 14 15  1  0
 15 16  2  0
 15 17  1  0
 17 18  1  0
 18 19  1  0
 19 20  2  0
 20 21  1  0
 21 22  2  0
 22 23  1  0
 23 24  1  0
 24 25  1  0
 25 26  2  0
 26 27  1  0
 13  7  1  0
 27 19  1  0
 27 23  2  0
M  END
$$$$
