
     RDKit          3D

 32 35  0  0  0  0  0  0  0  0999 V2000
   -7.3947   -4.0490   -0.3352 N   0  0  0  0  0  0  0  0  0  0  0  0
   -6.4102   -3.4956   -1.1946 C   0  0  0  0  0  0  0  0  0  0  0  0
   -6.3547   -2.1082   -1.3236 C   0  0  0  0  0  0  0  0  0  0  0  0
   -5.4961   -1.5629   -2.2601 C   0  0  0  0  0  0  0  0  0  0  0  0
   -4.7155   -2.2972   -3.0769 N   0  0  0  0  0  0  0  0  0  0  0  0
   -4.8087   -3.6421   -2.9480 C   0  0  0  0  0  0  0  0  0  0  0  0
   -5.6313   -4.3161   -2.0397 C   0  0  0  0  0  0  0  0  0  0  0  0
   -5.7138   -5.7141   -1.9608 N   0  0  0  0  0  0  0  0  0  0  0  0
   -5.1168   -6.3261   -0.7536 C   0  0  0  0  0  0  0  0  0  0  0  0
   -3.9925   -7.2788   -1.1123 C   0  0  0  0  0  0  0  0  0  0  0  0
   -3.5945   -8.1507   -0.3395 O   0  0  0  0  0  0  0  0  0  0  0  0
   -3.3588   -7.0669   -2.4588 C   0  0  0  0  0  0  0  0  0  0  0  0
   -4.4248   -7.1781   -3.5395 C   0  0  0  0  0  0  0  0  0  0  0  0
   -5.7648   -6.4844   -3.2121 C   0  0  0  0  0  0  0  0  0  0  0  0
   -6.9273   -7.5015   -3.1532 C   0  0  0  0  0  0  0  0  0  0  0  0
   -8.2754   -6.9024   -2.7409 C   0  0  0  0  0  0  0  0  0  0  0  0
   -8.7517   -5.9111   -3.7231 N   0  0  0  0  0  0  0  0  0  0  0  0
  -10.0617   -4.9236   -3.2466 S   0  0  0  0  0  0  0  0  0  0  0  0
  -10.0934   -3.8623   -4.2294 O   0  0  0  0  0  0  0  0  0  0  0  0
   -9.8554   -4.6624   -1.8363 O   0  0  0  0  0  0  0  0  0  0  0  0
  -11.4904   -5.9328   -3.5065 C   0  0  0  0  0  0  0  0  0  0  0  0
  -11.4078   -7.0102   -4.3960 C   0  0  0  0  0  0  0  0  0  0  0  0
  -12.5238   -7.8066   -4.5625 C   0  0  0  0  0  0  0  0  0  0  0  0
  -13.6859   -7.6018   -3.9155 N   0  0  0  0  0  0  0  0  0  0  0  0
  -13.7381   -6.5340   -3.0827 C   0  0  0  0  0  0  0  0  0  0  0  0
  -12.6847   -5.6487   -2.8341 C   0  0  0  0  0  0  0  0  0  0  0  0
  -12.8308   -4.5353   -2.0012 N   0  0  0  0  0  0  0  0  0  0  0  0
  -12.9404   -4.8383   -0.5625 C   0  0  0  0  0  0  0  0  0  0  0  0
  -14.2017   -4.2323    0.0468 C   0  0  0  0  0  0  0  0  0  0  0  0
  -14.2830   -2.7252   -0.1968 C   0  0  0  0  0  0  0  0  0  0  0  0
  -13.7547   -2.3143   -1.5733 C   0  0  0  0  0  0  0  0  0  0  0  0
  -13.7187   -3.4937   -2.5394 C   0  0  0  0  0  0  0  0  0  0  0  0
  1  2  1  0
  2  3  2  0
  3  4  1  0
  4  5  2  0
  5  6  1  0
  6  7  2  0
  7  8  1  0
  8  9  1  0
  9 10  1  0
 10 11  2  0
 10 12  1  0
 12 13  1  0
 13 14  1  0
 14 15  1  0
 15 16  1  0
 16 17  1  0
 17 18  1  0
 18 19  2  0
 18 20  2  0
 18 21  1  0
 21 22  2  0
 22 23  1  0
 23 24  2  0
 24 25  1  0
 25 26  2  0
 26 27  1  0
 27 28  1  0
 28 29  1  0
 29 30  1  0
 30 31  1  0
 31 32  1  0
  7  2  1  0
 14  8  1  0
 26 21  1  0
 32 27  1  0
M  END
$$$$
