
     RDKit          3D

 19 20  0  0  0  0  0  0  0  0999 V2000
   10.4934   35.8830  -11.6737 C   0  0  0  0  0  0  0  0  0  0  0  0
    9.0480   36.0471  -11.6563 N   0  0  0  0  0  0  0  0  0  0  0  0
    8.3603   34.7951  -12.0141 C   0  0  0  0  0  0  0  0  0  0  0  0
    6.9482   35.1198  -12.5097 C   0  0  0  0  0  0  0  0  0  0  0  0
    6.6843   36.1948  -13.0539 O   0  0  0  0  0  0  0  0  0  0  0  0
    5.8822   34.0766  -12.3984 C   0  0  0  0  0  0  0  0  0  0  0  0
    6.1655   32.7491  -12.0731 C   0  0  0  0  0  0  0  0  0  0  0  0
    5.1290   31.8216  -12.0111 C   0  0  0  0  0  0  0  0  0  0  0  0
    3.8145   32.2187  -12.2861 C   0  0  0  0  0  0  0  0  0  0  0  0
    2.8483   31.2379  -12.2508 O   0  0  0  0  0  0  0  0  0  0  0  0
    2.8306   30.5343  -13.4971 C   0  0  0  0  0  0  0  0  0  0  0  0
    3.4748   33.5585  -12.5893 C   0  0  0  0  0  0  0  0  0  0  0  0
    2.1569   33.9604  -12.8322 N   0  0  0  0  0  0  0  0  0  0  0  0
    1.1250   33.4472  -11.9090 C   0  0  0  0  0  0  0  0  0  0  0  0
    0.0268   34.4841  -11.6460 C   0  0  0  0  0  0  0  0  0  0  0  0
    0.6294   35.8601  -11.3789 C   0  0  0  0  0  0  0  0  0  0  0  0
    1.5287   36.3263  -12.5289 C   0  0  0  0  0  0  0  0  0  0  0  0
    1.8464   35.2115  -13.5259 C   0  0  0  0  0  0  0  0  0  0  0  0
    4.5511   34.4616  -12.6550 C   0  0  0  0  0  0  0  0  0  0  0  0
  1  2  1  0
  2  3  1  0
  3  4  1  0
  4  5  2  0
  4  6  1  0
  6  7  2  0
  7  8  1  0
  8  9  2  0
  9 10  1  0
 10 11  1  0
  9 12  1  0
 12 13  1  0
 13 14  1  0
 14 15  1  0
 15 16  1  0
 16 17  1  0
 17 18  1  0
 12 19  2  0
 19  6  1  0
 18 13  1  0
M  END
$$$$
