
     RDKit          3D

 18 19  0  0  0  0  0  0  0  0999 V2000
    8.4885    1.3474   16.6090 N   0  0  0  0  0  0  0  0  0  0  0  0
    7.9425    2.4279   17.4329 C   0  0  0  0  0  0  0  0  0  0  0  0
    8.3104    3.7898   16.8570 C   0  0  0  0  0  0  0  0  0  0  0  0
    7.7482    4.9006   17.7222 C   0  0  0  0  0  0  0  0  0  0  0  0
    7.8122    4.8858   18.9508 O   0  0  0  0  0  0  0  0  0  0  0  0
    7.2091    6.1061   17.0503 C   0  0  0  0  0  0  0  0  0  0  0  0
    7.8027    7.3315   17.3958 C   0  0  0  0  0  0  0  0  0  0  0  0
    7.4007    8.5056   16.7643 C   0  0  0  0  0  0  0  0  0  0  0  0
    6.4082    8.4426   15.7962 C   0  0  0  0  0  0  0  0  0  0  0  0
    5.9814    9.5644   15.1477 O   0  0  0  0  0  0  0  0  0  0  0  0
    5.8003    7.2315   15.4627 C   0  0  0  0  0  0  0  0  0  0  0  0
    6.1774    6.0320   16.0909 C   0  0  0  0  0  0  0  0  0  0  0  0
    5.5170    4.8181   15.8229 N   0  0  0  0  0  0  0  0  0  0  0  0
    4.5303    4.4759   16.8699 C   0  0  0  0  0  0  0  0  0  0  0  0
    3.4897    3.4722   16.3644 C   0  0  0  0  0  0  0  0  0  0  0  0
    4.1089    2.4322   15.4384 C   0  0  0  0  0  0  0  0  0  0  0  0
    4.8461    3.0758   14.2605 C   0  0  0  0  0  0  0  0  0  0  0  0
    5.0823    4.5764   14.4452 C   0  0  0  0  0  0  0  0  0  0  0  0
  1  2  1  0
  2  3  1  0
  3  4  1  0
  4  5  2  0
  4  6  1  0
  6  7  2  0
  7  8  1  0
  8  9  2  0
  9 10  1  0
  9 11  1  0
 11 12  2  0
 12 13  1  0
 13 14  1  0
 14 15  1  0
 15 16  1  0
 16 17  1  0
 17 18  1  0
 12  6  1  0
 18 13  1  0
M  END
$$$$
