
     RDKit          3D

 32 35  0  0  0  0  0  0  0  0999 V2000
  -20.7982    2.6467   16.9155 N   0  0  0  0  0  0  0  0  0  0  0  0
  -19.8513    2.4535   18.0151 C   0  0  0  0  0  0  0  0  0  0  0  0
  -19.0846    3.7140   18.3461 C   0  0  0  0  0  0  0  0  0  0  0  0
  -17.8588    3.9428   17.6981 C   0  0  0  0  0  0  0  0  0  0  0  0
  -17.1200    5.0656   18.0264 C   0  0  0  0  0  0  0  0  0  0  0  0
  -17.5061    5.9701   18.9461 N   0  0  0  0  0  0  0  0  0  0  0  0
  -18.6979    5.7358   19.5547 C   0  0  0  0  0  0  0  0  0  0  0  0
  -19.5474    4.6528   19.2934 C   0  0  0  0  0  0  0  0  0  0  0  0
  -20.7959    4.4714   19.9188 N   0  0  0  0  0  0  0  0  0  0  0  0
  -20.7657    4.3995   21.3884 C   0  0  0  0  0  0  0  0  0  0  0  0
  -21.0677    5.7314   22.0499 C   0  0  0  0  0  0  0  0  0  0  0  0
  -20.5133    6.0841   23.0915 O   0  0  0  0  0  0  0  0  0  0  0  0
  -22.1945    6.5345   21.4530 C   0  0  0  0  0  0  0  0  0  0  0  0
  -22.0580    6.6049   19.9383 C   0  0  0  0  0  0  0  0  0  0  0  0
  -21.9358    5.1975   19.3091 C   0  0  0  0  0  0  0  0  0  0  0  0
  -21.9684    5.3425   17.8552 N   0  0  0  0  0  0  0  0  0  0  0  0
  -23.2882    5.4310   17.2789 C   0  0  0  0  0  0  0  0  0  0  0  0
  -23.7789    4.0987   17.1737 N   0  0  0  0  0  0  0  0  0  0  0  0
  -24.9335    3.8145   16.4850 C   0  0  0  0  0  0  0  0  0  0  0  0
  -25.5643    4.6152   15.8081 O   0  0  0  0  0  0  0  0  0  0  0  0
  -25.3459    2.3982   16.5701 C   0  0  0  0  0  0  0  0  0  0  0  0
  -24.8279    1.5342   15.5914 C   0  0  0  0  0  0  0  0  0  0  0  0
  -25.1216    0.1754   15.6445 C   0  0  0  0  0  0  0  0  0  0  0  0
  -25.9417   -0.3098   16.6632 C   0  0  0  0  0  0  0  0  0  0  0  0
  -26.4485    0.5561   17.6434 C   0  0  0  0  0  0  0  0  0  0  0  0
  -26.1566    1.9318   17.6301 C   0  0  0  0  0  0  0  0  0  0  0  0
  -26.6619    2.8160   18.6080 N   0  0  0  0  0  0  0  0  0  0  0  0
  -26.8752    2.2780   19.9629 C   0  0  0  0  0  0  0  0  0  0  0  0
  -27.1086    3.4445   20.9248 C   0  0  0  0  0  0  0  0  0  0  0  0
  -28.3005    4.2930   20.4700 C   0  0  0  0  0  0  0  0  0  0  0  0
  -28.1101    4.7547   19.0229 C   0  0  0  0  0  0  0  0  0  0  0  0
  -27.8353    3.5692   18.0950 C   0  0  0  0  0  0  0  0  0  0  0  0
  1  2  1  0
  2  3  1  0
  3  4  2  0
  4  5  1  0
  5  6  2  0
  6  7  1  0
  7  8  2  0
  8  9  1  0
  9 10  1  0
 10 11  1  0
 11 12  2  0
 11 13  1  0
 13 14  1  0
 14 15  1  0
 15 16  1  0
 16 17  1  0
 17 18  1  0
 18 19  1  0
 19 20  2  0
 19 21  1  0
 21 22  2  0
 22 23  1  0
 23 24  2  0
 24 25  1  0
 25 26  2  0
 26 27  1  0
 27 28  1  0
 28 29  1  0
 29 30  1  0
 30 31  1  0
 31 32  1  0
  8  3  1  0
 15  9  1  0
 26 21  1  0
 32 27  1  0
M  END
$$$$
