
     RDKit          3D

 16 17  0  0  0  0  0  0  0  0999 V2000
   26.1482   22.7305   12.6592 C   0  0  0  0  0  0  0  0  0  0  0  0
   24.7405   22.5329   12.6786 O   0  0  0  0  0  0  0  0  0  0  0  0
   24.0102   23.3775   13.4683 C   0  0  0  0  0  0  0  0  0  0  0  0
   24.5133   24.4027   14.2556 C   0  0  0  0  0  0  0  0  0  0  0  0
   23.6391   25.1918   15.0083 C   0  0  0  0  0  0  0  0  0  0  0  0
   22.2408   24.9912   14.9870 C   0  0  0  0  0  0  0  0  0  0  0  0
   21.3677   25.8955   15.8283 C   0  0  0  0  0  0  0  0  0  0  0  0
   21.8617   27.2739   15.9170 N   0  0  0  0  0  0  0  0  0  0  0  0
   21.7301   23.9206   14.2241 C   0  0  0  0  0  0  0  0  0  0  0  0
   20.3866   23.5353   14.1403 N   0  0  0  0  0  0  0  0  0  0  0  0
   19.7162   23.1548   15.3843 C   0  0  0  0  0  0  0  0  0  0  0  0
   18.4762   22.3258   15.0460 C   0  0  0  0  0  0  0  0  0  0  0  0
   17.5644   23.0713   14.0716 C   0  0  0  0  0  0  0  0  0  0  0  0
   18.3339   23.4958   12.8210 C   0  0  0  0  0  0  0  0  0  0  0  0
   19.5862   24.2978   13.1784 C   0  0  0  0  0  0  0  0  0  0  0  0
   22.6330   23.1476   13.4633 C   0  0  0  0  0  0  0  0  0  0  0  0
  1  2  1  0
  2  3  1  0
  3  4  2  0
  4  5  1  0
  5  6  2  0
  6  7  1  0
  7  8  1  0
  6  9  1  0
  9 10  1  0
 10 11  1  0
 11 12  1  0
 12 13  1  0
 13 14  1  0
 14 15  1  0
  9 16  2  0
 16  3  1  0
 15 10  1  0
M  END
$$$$
