
     RDKit          3D

 19 20  0  0  0  0  0  0  0  0999 V2000
   30.1770    6.9195   -3.4206 N   0  0  0  0  0  0  0  0  0  0  0  0
   30.6840    6.4019   -4.6860 C   0  0  0  0  0  0  0  0  0  0  0  0
   30.7140    7.4808   -5.7582 C   0  0  0  0  0  0  0  0  0  0  0  0
   29.3220    7.8612   -6.2185 C   0  0  0  0  0  0  0  0  0  0  0  0
   28.5652    7.0410   -6.7422 O   0  0  0  0  0  0  0  0  0  0  0  0
   28.8933    9.2883   -6.0286 C   0  0  0  0  0  0  0  0  0  0  0  0
   28.4576    9.5954   -4.6229 C   0  0  0  0  0  0  0  0  0  0  0  0
   29.2511   10.0714   -3.8079 O   0  0  0  0  0  0  0  0  0  0  0  0
   27.0274    9.2794   -4.2462 C   0  0  0  0  0  0  0  0  0  0  0  0
   26.9354    7.9736   -3.4711 C   0  0  0  0  0  0  0  0  0  0  0  0
   25.5151    7.5872   -3.2064 C   0  0  0  0  0  0  0  0  0  0  0  0
   24.7684    7.9071   -2.0897 C   0  0  0  0  0  0  0  0  0  0  0  0
   23.5182    7.3708   -2.2413 N   0  0  0  0  0  0  0  0  0  0  0  0
   23.4264    6.7057   -3.4415 C   0  0  0  0  0  0  0  0  0  0  0  0
   22.3495    6.0168   -4.0124 C   0  0  0  0  0  0  0  0  0  0  0  0
   22.5487    5.4265   -5.2640 C   0  0  0  0  0  0  0  0  0  0  0  0
   23.7759    5.5225   -5.9157 C   0  0  0  0  0  0  0  0  0  0  0  0
   24.8421    6.2153   -5.3307 C   0  0  0  0  0  0  0  0  0  0  0  0
   24.6669    6.8203   -4.0689 C   0  0  0  0  0  0  0  0  0  0  0  0
  1  2  1  0
  2  3  1  0
  3  4  1  0
  4  5  2  0
  4  6  1  0
  6  7  1  0
  7  8  2  0
  7  9  1  0
  9 10  1  0
 10 11  1  0
 11 12  2  0
 12 13  1  0
 13 14  1  0
 14 15  2  0
 15 16  1  0
 16 17  2  0
 17 18  1  0
 18 19  2  0
 19 11  1  0
 19 14  1  0
M  END
$$$$
