
     RDKit          3D

 23 25  0  0  0  0  0  0  0  0999 V2000
   66.8839   21.2146 -107.9538 C   0  0  0  0  0  0  0  0  0  0  0  0
   68.0282   20.5192 -107.4739 O   0  0  0  0  0  0  0  0  0  0  0  0
   68.8274   21.1860 -106.5864 C   0  0  0  0  0  0  0  0  0  0  0  0
   68.7094   22.5225 -106.2243 C   0  0  0  0  0  0  0  0  0  0  0  0
   69.6010   23.0720 -105.3005 C   0  0  0  0  0  0  0  0  0  0  0  0
   70.6198   22.2969 -104.7099 C   0  0  0  0  0  0  0  0  0  0  0  0
   71.5223   22.9426 -103.6798 C   0  0  0  0  0  0  0  0  0  0  0  0
   70.7765   23.4332 -102.5142 N   0  0  0  0  0  0  0  0  0  0  0  0
   70.7670   20.9492 -105.0999 C   0  0  0  0  0  0  0  0  0  0  0  0
   71.8258   20.1676 -104.5933 N   0  0  0  0  0  0  0  0  0  0  0  0
   71.4131   18.9386 -103.8963 C   0  0  0  0  0  0  0  0  0  0  0  0
   71.4863   17.7042 -104.7763 C   0  0  0  0  0  0  0  0  0  0  0  0
   70.7089   16.7570 -104.6454 O   0  0  0  0  0  0  0  0  0  0  0  0
   72.5869   17.6629 -105.8065 C   0  0  0  0  0  0  0  0  0  0  0  0
   73.6379   18.7162 -105.4877 C   0  0  0  0  0  0  0  0  0  0  0  0
   73.0097   20.1354 -105.4905 C   0  0  0  0  0  0  0  0  0  0  0  0
   74.0222   21.1807 -105.2835 N   0  0  0  0  0  0  0  0  0  0  0  0
   74.8351   21.0436 -104.0838 C   0  0  0  0  0  0  0  0  0  0  0  0
   75.4931   22.3847 -103.7355 C   0  0  0  0  0  0  0  0  0  0  0  0
   75.9448   23.1767 -104.9654 C   0  0  0  0  0  0  0  0  0  0  0  0
   76.0980   22.2684 -106.1775 C   0  0  0  0  0  0  0  0  0  0  0  0
   74.7920   21.5201 -106.4814 C   0  0  0  0  0  0  0  0  0  0  0  0
   69.8540   20.4159 -106.0309 C   0  0  0  0  0  0  0  0  0  0  0  0
  1  2  1  0
  2  3  1  0
  3  4  2  0
  4  5  1  0
  5  6  2  0
  6  7  1  0
  7  8  1  0
  6  9  1  0
  9 10  1  0
 10 11  1  0
 11 12  1  0
 12 13  2  0
 12 14  1  0
 14 15  1  0
 15 16  1  0
 16 17  1  0
 17 18  1  0
 18 19  1  0
 19 20  1  0
 20 21  1  0
 21 22  1  0
  9 23  2  0
 23  3  1  0
 16 10  1  0
 22 17  1  0
M  END
$$$$
