
     RDKit          3D

 16 17  0  0  0  0  0  0  0  0999 V2000
   12.1880   17.7395  -14.3768 N   0  0  0  0  0  0  0  0  0  0  0  0
   11.2838   17.6076  -13.2346 C   0  0  0  0  0  0  0  0  0  0  0  0
    9.8710   17.2891  -13.7075 C   0  0  0  0  0  0  0  0  0  0  0  0
    8.9091   17.1348  -12.5434 C   0  0  0  0  0  0  0  0  0  0  0  0
    9.2348   17.3955  -11.3858 O   0  0  0  0  0  0  0  0  0  0  0  0
    7.5130   16.6653  -12.9051 C   0  0  0  0  0  0  0  0  0  0  0  0
    6.6196   16.5196  -11.6772 C   0  0  0  0  0  0  0  0  0  0  0  0
    5.2448   16.0563  -12.0435 C   0  0  0  0  0  0  0  0  0  0  0  0
    4.7957   14.7500  -12.0479 C   0  0  0  0  0  0  0  0  0  0  0  0
    3.4860   14.7464  -12.4452 N   0  0  0  0  0  0  0  0  0  0  0  0
    3.0643   16.0284  -12.7082 C   0  0  0  0  0  0  0  0  0  0  0  0
    1.8176   16.4972  -13.1399 C   0  0  0  0  0  0  0  0  0  0  0  0
    1.6717   17.8752  -13.3236 C   0  0  0  0  0  0  0  0  0  0  0  0
    2.7309   18.7468  -13.0833 C   0  0  0  0  0  0  0  0  0  0  0  0
    3.9707   18.2608  -12.6521 C   0  0  0  0  0  0  0  0  0  0  0  0
    4.1454   16.8746  -12.4604 C   0  0  0  0  0  0  0  0  0  0  0  0
  1  2  1  0
  2  3  1  0
  3  4  1  0
  4  5  2  0
  4  6  1  0
  6  7  1  0
  7  8  1  0
  8  9  2  0
  9 10  1  0
 10 11  1  0
 11 12  2  0
 12 13  1  0
 13 14  2  0
 14 15  1  0
 15 16  2  0
 16  8  1  0
 16 11  1  0
M  END
$$$$
