
     RDKit          3D

 16 17  0  0  0  0  0  0  0  0999 V2000
   -6.9273    4.0258   -2.1904 N   0  0  0  0  0  0  0  0  0  0  0  0
   -6.2363    3.0190   -2.8087 C   0  0  0  0  0  0  0  0  0  0  0  0
   -5.5378    3.2298   -3.7896 O   0  0  0  0  0  0  0  0  0  0  0  0
   -6.4086    1.6705   -2.2190 C   0  0  0  0  0  0  0  0  0  0  0  0
   -7.7320    1.1898   -2.1448 C   0  0  0  0  0  0  0  0  0  0  0  0
   -7.9889   -0.0953   -1.6736 C   0  0  0  0  0  0  0  0  0  0  0  0
   -6.9260   -0.8977   -1.2889 C   0  0  0  0  0  0  0  0  0  0  0  0
   -7.1657   -2.1369   -0.8406 F   0  0  0  0  0  0  0  0  0  0  0  0
   -5.6155   -0.4350   -1.3604 C   0  0  0  0  0  0  0  0  0  0  0  0
   -5.3215    0.8645   -1.8160 C   0  0  0  0  0  0  0  0  0  0  0  0
   -3.9647    1.2249   -1.8145 N   0  0  0  0  0  0  0  0  0  0  0  0
   -3.5972    2.5238   -1.2508 C   0  0  0  0  0  0  0  0  0  0  0  0
   -2.1193    2.4771   -0.8523 C   0  0  0  0  0  0  0  0  0  0  0  0
   -1.2394    1.7823   -1.8979 C   0  0  0  0  0  0  0  0  0  0  0  0
   -1.9578    1.6157   -3.2327 C   0  0  0  0  0  0  0  0  0  0  0  0
   -3.2831    0.8629   -3.0724 C   0  0  0  0  0  0  0  0  0  0  0  0
  1  2  1  0
  2  3  2  0
  2  4  1  0
  4  5  2  0
  5  6  1  0
  6  7  2  0
  7  8  1  0
  7  9  1  0
  9 10  2  0
 10 11  1  0
 11 12  1  0
 12 13  1  0
 13 14  1  0
 14 15  1  0
 15 16  1  0
 10  4  1  0
 16 11  1  0
M  END
$$$$
