
     RDKit          3D

 28 30  0  0  0  0  0  0  0  0999 V2000
   -6.3011   53.0245   12.5697 N   0  0  0  0  0  0  0  0  0  0  0  0
   -5.3553   53.9009   13.0125 C   0  0  0  0  0  0  0  0  0  0  0  0
   -4.1768   53.5637   13.0536 O   0  0  0  0  0  0  0  0  0  0  0  0
   -5.7914   55.2729   13.4274 C   0  0  0  0  0  0  0  0  0  0  0  0
   -4.7609   56.2129   13.6172 C   0  0  0  0  0  0  0  0  0  0  0  0
   -5.0479   57.5253   13.9924 C   0  0  0  0  0  0  0  0  0  0  0  0
   -6.3701   57.9063   14.1822 C   0  0  0  0  0  0  0  0  0  0  0  0
   -6.7333   59.5270   14.6342 Cl  0  0  0  0  0  0  0  0  0  0  0  0
   -7.4091   56.9876   14.0102 C   0  0  0  0  0  0  0  0  0  0  0  0
   -7.1328   55.6614   13.6398 C   0  0  0  0  0  0  0  0  0  0  0  0
   -8.1067   54.7103   13.4635 O   0  0  0  0  0  0  0  0  0  0  0  0
   -9.4286   55.0155   13.8973 C   0  0  0  0  0  0  0  0  0  0  0  0
  -10.1766   53.7796   13.7393 N   0  0  0  0  0  0  0  0  0  0  0  0
  -11.8517   53.9122   13.9071 S   0  0  0  0  0  0  0  0  0  0  0  0
  -12.2832   52.5852   14.2888 O   0  0  0  0  0  0  0  0  0  0  0  0
  -12.0685   55.0787   14.7349 O   0  0  0  0  0  0  0  0  0  0  0  0
  -12.4291   54.2135   12.2603 C   0  0  0  0  0  0  0  0  0  0  0  0
  -11.5672   53.9909   11.1793 C   0  0  0  0  0  0  0  0  0  0  0  0
  -12.0234   54.2849    9.9095 C   0  0  0  0  0  0  0  0  0  0  0  0
  -13.2506   54.7741    9.6571 N   0  0  0  0  0  0  0  0  0  0  0  0
  -14.0642   54.9599   10.7249 C   0  0  0  0  0  0  0  0  0  0  0  0
  -13.7271   54.6992   12.0565 C   0  0  0  0  0  0  0  0  0  0  0  0
  -14.6405   54.8612   13.1037 N   0  0  0  0  0  0  0  0  0  0  0  0
  -15.2472   56.1978   13.2472 C   0  0  0  0  0  0  0  0  0  0  0  0
  -16.7593   56.1542   13.0478 C   0  0  0  0  0  0  0  0  0  0  0  0
  -17.4328   55.1860   14.0220 C   0  0  0  0  0  0  0  0  0  0  0  0
  -16.5490   53.9879   14.3735 C   0  0  0  0  0  0  0  0  0  0  0  0
  -15.5344   53.7003   13.2719 C   0  0  0  0  0  0  0  0  0  0  0  0
  1  2  1  0
  2  3  2  0
  2  4  1  0
  4  5  2  0
  5  6  1  0
  6  7  2  0
  7  8  1  0
  7  9  1  0
  9 10  2  0
 10 11  1  0
 11 12  1  0
 12 13  1  0
 13 14  1  0
 14 15  2  0
 14 16  2  0
 14 17  1  0
 17 18  2  0
 18 19  1  0
 19 20  2  0
 20 21  1  0
 21 22  2  0
 22 23  1  0
 23 24  1  0
 24 25  1  0
 25 26  1  0
 26 27  1  0
 27 28  1  0
 10  4  1  0
 22 17  1  0
 28 23  1  0
M  END
$$$$
