
     RDKit          3D

 27 30  0  0  0  0  0  0  0  0999 V2000
  -50.5658  -21.7145   14.0183 N   0  0  0  0  0  0  0  0  0  0  0  0
  -49.5645  -23.0720   14.0803 S   0  0  0  0  0  0  0  0  0  0  0  0
  -48.7999  -23.0220   12.8561 O   0  0  0  0  0  0  0  0  0  0  0  0
  -50.4730  -24.1502   14.3968 O   0  0  0  0  0  0  0  0  0  0  0  0
  -48.4828  -22.7832   15.4448 C   0  0  0  0  0  0  0  0  0  0  0  0
  -48.4138  -21.4752   15.9521 C   0  0  0  0  0  0  0  0  0  0  0  0
  -47.7094  -21.2499   17.1175 C   0  0  0  0  0  0  0  0  0  0  0  0
  -47.0966  -22.2253   17.8058 N   0  0  0  0  0  0  0  0  0  0  0  0
  -47.1689  -23.4698   17.2763 C   0  0  0  0  0  0  0  0  0  0  0  0
  -47.8115  -23.8349   16.0817 C   0  0  0  0  0  0  0  0  0  0  0  0
  -47.6969  -25.1519   15.6569 N   0  0  0  0  0  0  0  0  0  0  0  0
  -48.3522  -26.1626   16.5028 C   0  0  0  0  0  0  0  0  0  0  0  0
  -49.0855  -27.1942   15.6530 C   0  0  0  0  0  0  0  0  0  0  0  0
  -48.1562  -27.9033   14.6721 C   0  0  0  0  0  0  0  0  0  0  0  0
  -46.9488  -27.0544   14.2773 C   0  0  0  0  0  0  0  0  0  0  0  0
  -47.2740  -25.5470   14.2812 C   0  0  0  0  0  0  0  0  0  0  0  0
  -46.0349  -24.7508   13.7776 C   0  0  0  0  0  0  0  0  0  0  0  0
  -44.9318  -24.8249   14.7413 N   0  0  0  0  0  0  0  0  0  0  0  0
  -43.8061  -24.1496   14.4406 C   0  0  0  0  0  0  0  0  0  0  0  0
  -43.4052  -23.6905   13.2793 N   0  0  0  0  0  0  0  0  0  0  0  0
  -42.2026  -23.0732   13.5227 C   0  0  0  0  0  0  0  0  0  0  0  0
  -41.3388  -22.4087   12.6402 C   0  0  0  0  0  0  0  0  0  0  0  0
  -40.1568  -21.8536   13.1472 C   0  0  0  0  0  0  0  0  0  0  0  0
  -39.8417  -21.9578   14.5047 C   0  0  0  0  0  0  0  0  0  0  0  0
  -40.6904  -22.6189   15.4010 C   0  0  0  0  0  0  0  0  0  0  0  0
  -41.8606  -23.1619   14.8673 C   0  0  0  0  0  0  0  0  0  0  0  0
  -42.8995  -23.8599   15.4257 N   0  0  0  0  0  0  0  0  0  0  0  0
  1  2  1  0
  2  3  2  0
  2  4  2  0
  2  5  1  0
  5  6  2  0
  6  7  1  0
  7  8  2  0
  8  9  1  0
  9 10  2  0
 10 11  1  0
 11 12  1  0
 12 13  1  0
 13 14  1  0
 14 15  1  0
 15 16  1  0
 16 17  1  0
 17 18  1  0
 18 19  1  0
 19 20  2  0
 20 21  1  0
 21 22  2  0
 22 23  1  0
 23 24  2  0
 24 25  1  0
 25 26  2  0
 26 27  1  0
 10  5  1  0
 16 11  1  0
 27 19  1  0
 26 21  1  0
M  END
$$$$
