
     RDKit          3D

 29 31  0  0  0  0  0  0  0  0999 V2000
   51.7986   11.3333  -17.6187 N   0  0  0  0  0  0  0  0  0  0  0  0
   51.8076   10.1277  -16.7978 C   0  0  0  0  0  0  0  0  0  0  0  0
   52.2081   10.3898  -15.3450 C   0  0  0  0  0  0  0  0  0  0  0  0
   53.6649   10.8360  -15.1948 C   0  0  0  0  0  0  0  0  0  0  0  0
   54.0667   10.9705  -13.7421 C   0  0  0  0  0  0  0  0  0  0  0  0
   53.7730   12.1645  -13.0665 C   0  0  0  0  0  0  0  0  0  0  0  0
   54.1256   12.2909  -11.7322 C   0  0  0  0  0  0  0  0  0  0  0  0
   54.7371   11.3211  -11.0253 N   0  0  0  0  0  0  0  0  0  0  0  0
   55.0092   10.1769  -11.6924 C   0  0  0  0  0  0  0  0  0  0  0  0
   54.7074    9.9338  -13.0402 C   0  0  0  0  0  0  0  0  0  0  0  0
   55.0086    8.7172  -13.6854 N   0  0  0  0  0  0  0  0  0  0  0  0
   54.1614    7.6174  -13.1841 C   0  0  0  0  0  0  0  0  0  0  0  0
   54.3710    6.3630  -14.0191 C   0  0  0  0  0  0  0  0  0  0  0  0
   53.4657    5.5539  -14.2266 O   0  0  0  0  0  0  0  0  0  0  0  0
   55.7676    6.1256  -14.5424 C   0  0  0  0  0  0  0  0  0  0  0  0
   56.7560    6.9506  -13.7270 C   0  0  0  0  0  0  0  0  0  0  0  0
   56.4502    8.4537  -13.8288 C   0  0  0  0  0  0  0  0  0  0  0  0
   56.8471    8.8459  -15.1409 O   0  0  0  0  0  0  0  0  0  0  0  0
   57.3860   10.1508  -15.1846 C   0  0  0  0  0  0  0  0  0  0  0  0
   58.8060    9.9901  -15.2824 N   0  0  0  0  0  0  0  0  0  0  0  0
   59.6312   11.0813  -15.1282 C   0  0  0  0  0  0  0  0  0  0  0  0
   59.2245   12.1857  -14.7862 O   0  0  0  0  0  0  0  0  0  0  0  0
   61.0759   10.8741  -15.4338 C   0  0  0  0  0  0  0  0  0  0  0  0
   61.6763    9.6064  -15.3805 C   0  0  0  0  0  0  0  0  0  0  0  0
   63.0363    9.4662  -15.6702 C   0  0  0  0  0  0  0  0  0  0  0  0
   63.7900   10.5878  -16.0015 C   0  0  0  0  0  0  0  0  0  0  0  0
   65.0935   10.4473  -16.2755 F   0  0  0  0  0  0  0  0  0  0  0  0
   63.2127   11.8513  -16.0451 C   0  0  0  0  0  0  0  0  0  0  0  0
   61.8540   11.9966  -15.7571 C   0  0  0  0  0  0  0  0  0  0  0  0
  1  2  1  0
  2  3  1  0
  3  4  1  0
  4  5  1  0
  5  6  2  0
  6  7  1  0
  7  8  2  0
  8  9  1  0
  9 10  2  0
 10 11  1  0
 11 12  1  0
 12 13  1  0
 13 14  2  0
 13 15  1  0
 15 16  1  0
 16 17  1  0
 17 18  1  0
 18 19  1  0
 19 20  1  0
 20 21  1  0
 21 22  2  0
 21 23  1  0
 23 24  2  0
 24 25  1  0
 25 26  2  0
 26 27  1  0
 26 28  1  0
 28 29  2  0
 10  5  1  0
 17 11  1  0
 29 23  1  0
M  END
$$$$
