
     RDKit          3D

 23 25  0  0  0  0  0  0  0  0999 V2000
  -48.1454   12.7595   27.9801 N   0  0  0  0  0  0  0  0  0  0  0  0
  -47.7221   12.0393   29.0655 C   0  0  0  0  0  0  0  0  0  0  0  0
  -47.2196   10.9285   28.9292 O   0  0  0  0  0  0  0  0  0  0  0  0
  -47.9545   12.6213   30.4231 C   0  0  0  0  0  0  0  0  0  0  0  0
  -48.0687   11.6793   31.4697 C   0  0  0  0  0  0  0  0  0  0  0  0
  -48.3009   12.0896   32.7809 C   0  0  0  0  0  0  0  0  0  0  0  0
  -48.4172   13.4445   33.0504 C   0  0  0  0  0  0  0  0  0  0  0  0
  -48.6291   13.8509   34.3092 F   0  0  0  0  0  0  0  0  0  0  0  0
  -48.2927   14.3961   32.0386 C   0  0  0  0  0  0  0  0  0  0  0  0
  -48.0524   14.0107   30.7019 C   0  0  0  0  0  0  0  0  0  0  0  0
  -47.8823   14.9936   29.6858 N   0  0  0  0  0  0  0  0  0  0  0  0
  -49.1020   15.8505   29.5980 C   0  0  0  0  0  0  0  0  0  0  0  0
  -49.0001   16.8389   28.4492 C   0  0  0  0  0  0  0  0  0  0  0  0
  -49.9689   17.1081   27.7376 O   0  0  0  0  0  0  0  0  0  0  0  0
  -47.7008   17.5979   28.3429 C   0  0  0  0  0  0  0  0  0  0  0  0
  -46.5262   16.6416   28.4911 C   0  0  0  0  0  0  0  0  0  0  0  0
  -46.6149   15.7831   29.7918 C   0  0  0  0  0  0  0  0  0  0  0  0
  -45.2650   15.2196   29.9970 N   0  0  0  0  0  0  0  0  0  0  0  0
  -44.8438   14.2019   29.0278 C   0  0  0  0  0  0  0  0  0  0  0  0
  -43.3375   13.9284   29.1488 C   0  0  0  0  0  0  0  0  0  0  0  0
  -42.9355   13.5599   30.5730 C   0  0  0  0  0  0  0  0  0  0  0  0
  -43.4911   14.5730   31.5708 C   0  0  0  0  0  0  0  0  0  0  0  0
  -44.9943   14.7752   31.3650 C   0  0  0  0  0  0  0  0  0  0  0  0
  1  2  1  0
  2  3  2  0
  2  4  1  0
  4  5  2  0
  5  6  1  0
  6  7  2  0
  7  8  1  0
  7  9  1  0
  9 10  2  0
 10 11  1  0
 11 12  1  0
 12 13  1  0
 13 14  2  0
 13 15  1  0
 15 16  1  0
 16 17  1  0
 17 18  1  0
 18 19  1  0
 19 20  1  0
 20 21  1  0
 21 22  1  0
 22 23  1  0
 10  4  1  0
 17 11  1  0
 23 18  1  0
M  END
$$$$
