
     RDKit          3D

 19 20  0  0  0  0  0  0  0  0999 V2000
  -13.3103    7.3096  -10.8805 N   0  0  0  0  0  0  0  0  0  0  0  0
  -12.8033    6.7919  -12.1460 C   0  0  0  0  0  0  0  0  0  0  0  0
  -12.7733    7.8709  -13.2182 C   0  0  0  0  0  0  0  0  0  0  0  0
  -14.1653    8.2513  -13.6784 C   0  0  0  0  0  0  0  0  0  0  0  0
  -14.9221    7.4311  -14.2021 O   0  0  0  0  0  0  0  0  0  0  0  0
  -14.5940    9.6783  -13.4886 C   0  0  0  0  0  0  0  0  0  0  0  0
  -15.0297    9.9854  -12.0828 C   0  0  0  0  0  0  0  0  0  0  0  0
  -14.2362   10.4615  -11.2678 O   0  0  0  0  0  0  0  0  0  0  0  0
  -16.4599    9.6695  -11.7061 C   0  0  0  0  0  0  0  0  0  0  0  0
  -16.5520    8.3637  -10.9310 C   0  0  0  0  0  0  0  0  0  0  0  0
  -17.9722    7.9772  -10.6663 C   0  0  0  0  0  0  0  0  0  0  0  0
  -18.7189    8.2972   -9.5496 C   0  0  0  0  0  0  0  0  0  0  0  0
  -19.9692    7.7609   -9.7012 N   0  0  0  0  0  0  0  0  0  0  0  0
  -20.0609    7.0958  -10.9014 C   0  0  0  0  0  0  0  0  0  0  0  0
  -21.1378    6.4069  -11.4723 C   0  0  0  0  0  0  0  0  0  0  0  0
  -20.9386    5.8166  -12.7240 C   0  0  0  0  0  0  0  0  0  0  0  0
  -19.7114    5.9126  -13.3756 C   0  0  0  0  0  0  0  0  0  0  0  0
  -18.6452    6.6054  -12.7906 C   0  0  0  0  0  0  0  0  0  0  0  0
  -18.8204    7.2104  -11.5288 C   0  0  0  0  0  0  0  0  0  0  0  0
  1  2  1  0
  2  3  1  0
  3  4  1  0
  4  5  2  0
  4  6  1  0
  6  7  1  0
  7  8  2  0
  7  9  1  0
  9 10  1  0
 10 11  1  0
 11 12  2  0
 12 13  1  0
 13 14  1  0
 14 15  2  0
 15 16  1  0
 16 17  2  0
 17 18  1  0
 18 19  2  0
 19 11  1  0
 19 14  1  0
M  END
$$$$
