
     RDKit          3D

 18 19  0  0  0  0  0  0  0  0999 V2000
  -19.3456  -26.6673   15.8883 N   0  0  0  0  0  0  0  0  0  0  0  0
  -20.1662  -27.7095   15.2820 C   0  0  0  0  0  0  0  0  0  0  0  0
  -20.0635  -29.0010   16.0950 C   0  0  0  0  0  0  0  0  0  0  0  0
  -20.8104  -30.1642   15.4433 C   0  0  0  0  0  0  0  0  0  0  0  0
  -22.3253  -30.0517   15.5151 C   0  0  0  0  0  0  0  0  0  0  0  0
  -22.8940  -29.1425   16.1180 O   0  0  0  0  0  0  0  0  0  0  0  0
  -23.1004  -31.1500   14.7997 C   0  0  0  0  0  0  0  0  0  0  0  0
  -24.6139  -30.9831   14.9178 C   0  0  0  0  0  0  0  0  0  0  0  0
  -25.1424  -29.8426   14.0428 C   0  0  0  0  0  0  0  0  0  0  0  0
  -26.5708  -29.5541   14.3460 C   0  0  0  0  0  0  0  0  0  0  0  0
  -27.6255  -30.0312   13.7189 N   0  0  0  0  0  0  0  0  0  0  0  0
  -28.7114  -29.4853   14.3604 C   0  0  0  0  0  0  0  0  0  0  0  0
  -30.0805  -29.6524   14.1078 C   0  0  0  0  0  0  0  0  0  0  0  0
  -31.0011  -28.9763   14.9191 C   0  0  0  0  0  0  0  0  0  0  0  0
  -30.5669  -28.1514   15.9601 C   0  0  0  0  0  0  0  0  0  0  0  0
  -29.2043  -27.9723   16.2273 C   0  0  0  0  0  0  0  0  0  0  0  0
  -28.3096  -28.6576   15.4028 C   0  0  0  0  0  0  0  0  0  0  0  0
  -26.9408  -28.7181   15.3720 N   0  0  0  0  0  0  0  0  0  0  0  0
  1  2  1  0
  2  3  1  0
  3  4  1  0
  4  5  1  0
  5  6  2  0
  5  7  1  0
  7  8  1  0
  8  9  1  0
  9 10  1  0
 10 11  2  0
 11 12  1  0
 12 13  2  0
 13 14  1  0
 14 15  2  0
 15 16  1  0
 16 17  2  0
 17 18  1  0
 18 10  1  0
 17 12  1  0
M  END
$$$$
