
     RDKit          3D

 19 20  0  0  0  0  0  0  0  0999 V2000
   20.1483    8.0268   -3.7389 N   0  0  0  0  0  0  0  0  0  0  0  0
   19.5090    9.3416   -3.7505 C   0  0  0  0  0  0  0  0  0  0  0  0
   18.8590    9.6886   -2.4184 C   0  0  0  0  0  0  0  0  0  0  0  0
   17.5298    8.9873   -2.2255 C   0  0  0  0  0  0  0  0  0  0  0  0
   17.3718    8.1704   -1.3151 O   0  0  0  0  0  0  0  0  0  0  0  0
   16.4165    9.3165   -3.2057 C   0  0  0  0  0  0  0  0  0  0  0  0
   15.0391    9.1220   -2.5864 C   0  0  0  0  0  0  0  0  0  0  0  0
   14.7694   10.1184   -1.4724 C   0  0  0  0  0  0  0  0  0  0  0  0
   15.5029   11.0917   -1.2844 O   0  0  0  0  0  0  0  0  0  0  0  0
   13.5355    9.8736   -0.6240 C   0  0  0  0  0  0  0  0  0  0  0  0
   12.2852   10.1572   -1.3856 C   0  0  0  0  0  0  0  0  0  0  0  0
   11.7457   11.4043   -1.6273 C   0  0  0  0  0  0  0  0  0  0  0  0
   10.6060   11.2451   -2.3668 N   0  0  0  0  0  0  0  0  0  0  0  0
   10.3926    9.9166   -2.6300 C   0  0  0  0  0  0  0  0  0  0  0  0
    9.3673    9.2981   -3.3552 C   0  0  0  0  0  0  0  0  0  0  0  0
    9.4019    7.9024   -3.4702 C   0  0  0  0  0  0  0  0  0  0  0  0
   10.4219    7.1621   -2.8812 C   0  0  0  0  0  0  0  0  0  0  0  0
   11.4366    7.7967   -2.1542 C   0  0  0  0  0  0  0  0  0  0  0  0
   11.4262    9.2041   -2.0240 C   0  0  0  0  0  0  0  0  0  0  0  0
  1  2  1  0
  2  3  1  0
  3  4  1  0
  4  5  2  0
  4  6  1  0
  6  7  1  0
  7  8  1  0
  8  9  2  0
  8 10  1  0
 10 11  1  0
 11 12  2  0
 12 13  1  0
 13 14  1  0
 14 15  2  0
 15 16  1  0
 16 17  2  0
 17 18  1  0
 18 19  2  0
 19 11  1  0
 19 14  1  0
M  END
$$$$
