
     RDKit          3D

 21 22  0  0  0  0  0  0  0  0999 V2000
    3.3983    7.0982   16.0658 N   0  0  0  0  0  0  0  0  0  0  0  0
    2.1427    6.8587   15.3661 C   0  0  0  0  0  0  0  0  0  0  0  0
    1.4367    5.6344   15.9469 C   0  0  0  0  0  0  0  0  0  0  0  0
    0.1249    5.3511   15.2119 C   0  0  0  0  0  0  0  0  0  0  0  0
   -0.5919    4.1352   15.8005 C   0  0  0  0  0  0  0  0  0  0  0  0
   -1.8938    3.8489   15.0558 C   0  0  0  0  0  0  0  0  0  0  0  0
   -2.7746    2.4794   15.7846 S   0  0  0  0  0  0  0  0  0  0  0  0
   -3.4162    2.9129   17.0122 O   0  0  0  0  0  0  0  0  0  0  0  0
   -1.8471    1.3587   15.8128 O   0  0  0  0  0  0  0  0  0  0  0  0
   -4.0625    2.0328   14.6396 C   0  0  0  0  0  0  0  0  0  0  0  0
   -4.1691    0.6703   14.3213 C   0  0  0  0  0  0  0  0  0  0  0  0
   -5.1048    0.2838   13.3855 C   0  0  0  0  0  0  0  0  0  0  0  0
   -5.9219    1.1497   12.7630 N   0  0  0  0  0  0  0  0  0  0  0  0
   -5.8012    2.4569   13.1052 C   0  0  0  0  0  0  0  0  0  0  0  0
   -4.8943    2.9856   14.0333 C   0  0  0  0  0  0  0  0  0  0  0  0
   -4.8627    4.3481   14.3560 N   0  0  0  0  0  0  0  0  0  0  0  0
   -5.5586    4.6722   15.6263 C   0  0  0  0  0  0  0  0  0  0  0  0
   -6.6305    5.7402   15.4228 C   0  0  0  0  0  0  0  0  0  0  0  0
   -6.0508    7.0153   14.8092 C   0  0  0  0  0  0  0  0  0  0  0  0
   -4.9327    6.7304   13.8042 C   0  0  0  0  0  0  0  0  0  0  0  0
   -5.0310    5.3109   13.2530 C   0  0  0  0  0  0  0  0  0  0  0  0
  1  2  1  0
  2  3  1  0
  3  4  1  0
  4  5  1  0
  5  6  1  0
  6  7  1  0
  7  8  2  0
  7  9  2  0
  7 10  1  0
 10 11  2  0
 11 12  1  0
 12 13  2  0
 13 14  1  0
 14 15  2  0
 15 16  1  0
 16 17  1  0
 17 18  1  0
 18 19  1  0
 19 20  1  0
 20 21  1  0
 15 10  1  0
 21 16  1  0
M  END
$$$$
