
     RDKit          3D

 16 17  0  0  0  0  0  0  0  0999 V2000
   24.5521    0.4560  -35.4436 N   0  0  0  0  0  0  0  0  0  0  0  0
   25.1137   -0.6348  -34.6584 C   0  0  0  0  0  0  0  0  0  0  0  0
   24.0173   -1.3224  -33.8479 C   0  0  0  0  0  0  0  0  0  0  0  0
   24.5999   -2.4045  -32.9478 C   0  0  0  0  0  0  0  0  0  0  0  0
   23.5324   -3.2931  -32.3397 C   0  0  0  0  0  0  0  0  0  0  0  0
   23.4837   -4.4927  -32.6267 O   0  0  0  0  0  0  0  0  0  0  0  0
   22.5566   -2.6688  -31.3589 C   0  0  0  0  0  0  0  0  0  0  0  0
   21.2508   -2.3254  -31.9969 C   0  0  0  0  0  0  0  0  0  0  0  0
   20.3840   -3.2113  -32.6090 C   0  0  0  0  0  0  0  0  0  0  0  0
   19.2991   -2.5149  -33.0636 N   0  0  0  0  0  0  0  0  0  0  0  0
   19.4266   -1.1822  -32.7524 C   0  0  0  0  0  0  0  0  0  0  0  0
   18.5643   -0.1108  -33.0151 C   0  0  0  0  0  0  0  0  0  0  0  0
   18.9522    1.1572  -32.5743 C   0  0  0  0  0  0  0  0  0  0  0  0
   20.1540    1.3427  -31.8966 C   0  0  0  0  0  0  0  0  0  0  0  0
   21.0036    0.2599  -31.6410 C   0  0  0  0  0  0  0  0  0  0  0  0
   20.6391   -1.0313  -32.0776 C   0  0  0  0  0  0  0  0  0  0  0  0
  1  2  1  0
  2  3  1  0
  3  4  1  0
  4  5  1  0
  5  6  2  0
  5  7  1  0
  7  8  1  0
  8  9  2  0
  9 10  1  0
 10 11  1  0
 11 12  2  0
 12 13  1  0
 13 14  2  0
 14 15  1  0
 15 16  2  0
 16  8  1  0
 16 11  1  0
M  END
$$$$
