
     RDKit          3D

 28 31  0  0  0  0  0  0  0  0999 V2000
    3.1477   -3.3672    9.5395 N   0  0  0  0  0  0  0  0  0  0  0  0
    1.8783   -3.8750    9.0267 C   0  0  0  0  0  0  0  0  0  0  0  0
    2.0220   -4.4730    7.6468 C   0  0  0  0  0  0  0  0  0  0  0  0
    1.8037   -3.6463    6.5268 C   0  0  0  0  0  0  0  0  0  0  0  0
    1.9299   -4.1442    5.2306 C   0  0  0  0  0  0  0  0  0  0  0  0
    2.2727   -5.4754    5.0489 C   0  0  0  0  0  0  0  0  0  0  0  0
    2.4136   -6.0098    3.7996 O   0  0  0  0  0  0  0  0  0  0  0  0
    2.4961   -6.3098    6.1394 C   0  0  0  0  0  0  0  0  0  0  0  0
    2.3956   -5.8201    7.4529 C   0  0  0  0  0  0  0  0  0  0  0  0
    2.6752   -6.6394    8.5642 N   0  0  0  0  0  0  0  0  0  0  0  0
    1.7193   -7.7488    8.7353 C   0  0  0  0  0  0  0  0  0  0  0  0
    2.3892   -9.1098    8.5639 C   0  0  0  0  0  0  0  0  0  0  0  0
    3.5446   -9.2930    9.5482 C   0  0  0  0  0  0  0  0  0  0  0  0
    4.2690   -7.9849    9.8512 C   0  0  0  0  0  0  0  0  0  0  0  0
    4.1028   -6.9599    8.7234 C   0  0  0  0  0  0  0  0  0  0  0  0
    4.8035   -5.7801    9.1216 O   0  0  0  0  0  0  0  0  0  0  0  0
    6.0589   -5.6014    8.4621 C   0  0  0  0  0  0  0  0  0  0  0  0
    5.8928   -4.9868    7.0649 C   0  0  0  0  0  0  0  0  0  0  0  0
    7.1596   -4.8012    6.3773 N   0  0  0  0  0  0  0  0  0  0  0  0
    8.0108   -3.7950    6.8236 C   0  0  0  0  0  0  0  0  0  0  0  0
    7.5356   -2.7331    7.5253 N   0  0  0  0  0  0  0  0  0  0  0  0
    8.3999   -1.7722    7.9211 C   0  0  0  0  0  0  0  0  0  0  0  0
    9.7325   -1.7106    7.7205 N   0  0  0  0  0  0  0  0  0  0  0  0
   10.1523   -2.7798    7.0350 C   0  0  0  0  0  0  0  0  0  0  0  0
   11.4308   -3.0566    6.6468 N   0  0  0  0  0  0  0  0  0  0  0  0
   11.4082   -4.2456    5.9720 C   0  0  0  0  0  0  0  0  0  0  0  0
   10.1948   -4.7535    5.9077 N   0  0  0  0  0  0  0  0  0  0  0  0
    9.3943   -3.8352    6.5619 C   0  0  0  0  0  0  0  0  0  0  0  0
  1  2  1  0
  2  3  1  0
  3  4  2  0
  4  5  1  0
  5  6  2  0
  6  7  1  0
  6  8  1  0
  8  9  2  0
  9 10  1  0
 10 11  1  0
 11 12  1  0
 12 13  1  0
 13 14  1  0
 14 15  1  0
 15 16  1  0
 16 17  1  0
 17 18  1  0
 18 19  1  0
 19 20  1  0
 20 21  2  0
 21 22  1  0
 22 23  2  0
 23 24  1  0
 24 25  1  0
 25 26  1  0
 26 27  2  0
 27 28  1  0
  9  3  1  0
 15 10  1  0
 28 20  1  0
 28 24  2  0
M  END
$$$$
