
     RDKit          3D

 27 30  0  0  0  0  0  0  0  0999 V2000
   -0.4012    3.9910  -19.9106 N   0  0  0  0  0  0  0  0  0  0  0  0
    0.2478    5.1511  -20.3969 C   0  0  0  0  0  0  0  0  0  0  0  0
    0.2829    6.2961  -19.5996 C   0  0  0  0  0  0  0  0  0  0  0  0
    0.9544    7.4098  -20.0686 C   0  0  0  0  0  0  0  0  0  0  0  0
    1.6010    7.4488  -21.2489 N   0  0  0  0  0  0  0  0  0  0  0  0
    1.6051    6.3050  -21.9754 C   0  0  0  0  0  0  0  0  0  0  0  0
    1.0036    5.1019  -21.5924 C   0  0  0  0  0  0  0  0  0  0  0  0
    1.1088    3.9059  -22.3242 N   0  0  0  0  0  0  0  0  0  0  0  0
    1.2219    4.0122  -23.7860 C   0  0  0  0  0  0  0  0  0  0  0  0
    0.8969    2.6767  -24.4448 C   0  0  0  0  0  0  0  0  0  0  0  0
    0.3588    2.6174  -25.5528 O   0  0  0  0  0  0  0  0  0  0  0  0
    1.4129    1.4236  -23.7718 C   0  0  0  0  0  0  0  0  0  0  0  0
    1.3092    1.5202  -22.2534 C   0  0  0  0  0  0  0  0  0  0  0  0
    1.9042    2.8389  -21.6968 C   0  0  0  0  0  0  0  0  0  0  0  0
    3.3592    2.7645  -21.8569 N   0  0  0  0  0  0  0  0  0  0  0  0
    4.1095    3.8741  -21.2581 C   0  0  0  0  0  0  0  0  0  0  0  0
    3.9748    4.0545  -19.7293 C   0  0  0  0  0  0  0  0  0  0  0  0
    4.6933    5.2450  -19.2659 N   0  0  0  0  0  0  0  0  0  0  0  0
    6.0422    5.2552  -19.2943 C   0  0  0  0  0  0  0  0  0  0  0  0
    6.8072    6.1521  -19.8627 N   0  0  0  0  0  0  0  0  0  0  0  0
    8.0951    5.7447  -19.6110 C   0  0  0  0  0  0  0  0  0  0  0  0
    9.3122    6.3272  -19.9932 C   0  0  0  0  0  0  0  0  0  0  0  0
   10.5056    5.7089  -19.5989 C   0  0  0  0  0  0  0  0  0  0  0  0
   10.4875    4.5342  -18.8415 C   0  0  0  0  0  0  0  0  0  0  0  0
    9.2827    3.9369  -18.4513 C   0  0  0  0  0  0  0  0  0  0  0  0
    8.1097    4.5748  -18.8589 C   0  0  0  0  0  0  0  0  0  0  0  0
    6.7825    4.2955  -18.6594 N   0  0  0  0  0  0  0  0  0  0  0  0
  1  2  1  0
  2  3  2  0
  3  4  1  0
  4  5  2  0
  5  6  1  0
  6  7  2  0
  7  8  1  0
  8  9  1  0
  9 10  1  0
 10 11  2  0
 10 12  1  0
 12 13  1  0
 13 14  1  0
 14 15  1  0
 15 16  1  0
 16 17  1  0
 17 18  1  0
 18 19  1  0
 19 20  2  0
 20 21  1  0
 21 22  2  0
 22 23  1  0
 23 24  2  0
 24 25  1  0
 25 26  2  0
 26 27  1  0
  7  2  1  0
 14  8  1  0
 27 19  1  0
 26 21  1  0
M  END
$$$$
