
     RDKit          3D

 19 20  0  0  0  0  0  0  0  0999 V2000
   40.2849    9.0724  -42.7111 N   0  0  0  0  0  0  0  0  0  0  0  0
   40.7920    8.5548  -43.9766 C   0  0  0  0  0  0  0  0  0  0  0  0
   40.8220    9.6337  -45.0488 C   0  0  0  0  0  0  0  0  0  0  0  0
   39.4299   10.0142  -45.5090 C   0  0  0  0  0  0  0  0  0  0  0  0
   38.6732    9.1940  -46.0327 O   0  0  0  0  0  0  0  0  0  0  0  0
   39.0013   11.4412  -45.3192 C   0  0  0  0  0  0  0  0  0  0  0  0
   38.5656   11.7483  -43.9134 C   0  0  0  0  0  0  0  0  0  0  0  0
   39.3590   12.2243  -43.0984 O   0  0  0  0  0  0  0  0  0  0  0  0
   37.1353   11.4324  -43.5367 C   0  0  0  0  0  0  0  0  0  0  0  0
   37.0433   10.1266  -42.7616 C   0  0  0  0  0  0  0  0  0  0  0  0
   35.6230    9.7401  -42.4969 C   0  0  0  0  0  0  0  0  0  0  0  0
   34.8764   10.0600  -41.3802 C   0  0  0  0  0  0  0  0  0  0  0  0
   33.6261    9.5237  -41.5318 N   0  0  0  0  0  0  0  0  0  0  0  0
   33.5344    8.8587  -42.7321 C   0  0  0  0  0  0  0  0  0  0  0  0
   32.4575    8.1697  -43.3030 C   0  0  0  0  0  0  0  0  0  0  0  0
   32.6566    7.5794  -44.5546 C   0  0  0  0  0  0  0  0  0  0  0  0
   33.8838    7.6755  -45.2062 C   0  0  0  0  0  0  0  0  0  0  0  0
   34.9500    8.3683  -44.6213 C   0  0  0  0  0  0  0  0  0  0  0  0
   34.7749    8.9732  -43.3594 C   0  0  0  0  0  0  0  0  0  0  0  0
  1  2  1  0
  2  3  1  0
  3  4  1  0
  4  5  2  0
  4  6  1  0
  6  7  1  0
  7  8  2  0
  7  9  1  0
  9 10  1  0
 10 11  1  0
 11 12  2  0
 12 13  1  0
 13 14  1  0
 14 15  2  0
 15 16  1  0
 16 17  2  0
 17 18  1  0
 18 19  2  0
 19 11  1  0
 19 14  1  0
M  END
$$$$
