
     RDKit          3D

 19 20  0  0  0  0  0  0  0  0999 V2000
   11.5512  -10.6589   17.9761 N   0  0  0  0  0  0  0  0  0  0  0  0
   12.0583  -11.1766   16.7107 C   0  0  0  0  0  0  0  0  0  0  0  0
   12.0883  -10.0976   15.6385 C   0  0  0  0  0  0  0  0  0  0  0  0
   10.6962   -9.7172   15.1782 C   0  0  0  0  0  0  0  0  0  0  0  0
    9.9395  -10.5374   14.6546 O   0  0  0  0  0  0  0  0  0  0  0  0
   10.2676   -8.2902   15.3681 C   0  0  0  0  0  0  0  0  0  0  0  0
    9.8319   -7.9831   16.7738 C   0  0  0  0  0  0  0  0  0  0  0  0
   10.6253   -7.5070   17.5888 O   0  0  0  0  0  0  0  0  0  0  0  0
    8.4017   -8.2990   17.1505 C   0  0  0  0  0  0  0  0  0  0  0  0
    8.3096   -9.6048   17.9256 C   0  0  0  0  0  0  0  0  0  0  0  0
    6.8893   -9.9913   18.1903 C   0  0  0  0  0  0  0  0  0  0  0  0
    6.1427   -9.6713   19.3070 C   0  0  0  0  0  0  0  0  0  0  0  0
    4.8924  -10.2076   19.1554 N   0  0  0  0  0  0  0  0  0  0  0  0
    4.8007  -10.8727   17.9552 C   0  0  0  0  0  0  0  0  0  0  0  0
    3.7238  -11.5616   17.3843 C   0  0  0  0  0  0  0  0  0  0  0  0
    3.9230  -12.1519   16.1327 C   0  0  0  0  0  0  0  0  0  0  0  0
    5.1502  -12.0559   15.4811 C   0  0  0  0  0  0  0  0  0  0  0  0
    6.2164  -11.3631   16.0660 C   0  0  0  0  0  0  0  0  0  0  0  0
    6.0412  -10.7581   17.3278 C   0  0  0  0  0  0  0  0  0  0  0  0
  1  2  1  0
  2  3  1  0
  3  4  1  0
  4  5  2  0
  4  6  1  0
  6  7  1  0
  7  8  2  0
  7  9  1  0
  9 10  1  0
 10 11  1  0
 11 12  2  0
 12 13  1  0
 13 14  1  0
 14 15  2  0
 15 16  1  0
 16 17  2  0
 17 18  1  0
 18 19  2  0
 19 11  1  0
 19 14  1  0
M  END
$$$$
