
     RDKit          3D

 23 25  0  0  0  0  0  0  0  0999 V2000
  -54.3788   -5.2413   47.2586 N   0  0  0  0  0  0  0  0  0  0  0  0
  -53.2407   -4.4549   46.7912 C   0  0  0  0  0  0  0  0  0  0  0  0
  -51.9323   -5.1965   47.0633 C   0  0  0  0  0  0  0  0  0  0  0  0
  -50.6835   -4.3698   46.7332 C   0  0  0  0  0  0  0  0  0  0  0  0
  -50.4677   -4.1048   45.2587 C   0  0  0  0  0  0  0  0  0  0  0  0
  -51.0309   -2.9477   44.6955 C   0  0  0  0  0  0  0  0  0  0  0  0
  -50.8420   -2.6856   43.3491 C   0  0  0  0  0  0  0  0  0  0  0  0
  -50.1383   -3.4835   42.5267 N   0  0  0  0  0  0  0  0  0  0  0  0
  -49.5872   -4.5849   43.0903 C   0  0  0  0  0  0  0  0  0  0  0  0
  -49.6996   -4.9563   44.4390 C   0  0  0  0  0  0  0  0  0  0  0  0
  -49.1043   -6.1219   44.9667 N   0  0  0  0  0  0  0  0  0  0  0  0
  -49.9412   -7.2997   44.7349 C   0  0  0  0  0  0  0  0  0  0  0  0
  -50.0133   -8.0362   45.9467 O   0  0  0  0  0  0  0  0  0  0  0  0
  -49.3861   -8.1873   43.6239 C   0  0  0  0  0  0  0  0  0  0  0  0
  -47.9725   -8.6746   43.9275 C   0  0  0  0  0  0  0  0  0  0  0  0
  -47.2256   -7.7543   44.8919 C   0  0  0  0  0  0  0  0  0  0  0  0
  -47.6429   -6.2671   44.7321 C   0  0  0  0  0  0  0  0  0  0  0  0
  -46.6665   -5.4615   45.4978 N   0  0  0  0  0  0  0  0  0  0  0  0
  -46.6602   -4.0490   45.1327 C   0  0  0  0  0  0  0  0  0  0  0  0
  -45.4143   -3.3636   45.7063 C   0  0  0  0  0  0  0  0  0  0  0  0
  -45.1108   -3.7742   47.1486 C   0  0  0  0  0  0  0  0  0  0  0  0
  -46.3039   -4.4688   47.7885 C   0  0  0  0  0  0  0  0  0  0  0  0
  -46.7619   -5.6704   46.9503 C   0  0  0  0  0  0  0  0  0  0  0  0
  1  2  1  0
  2  3  1  0
  3  4  1  0
  4  5  1  0
  5  6  2  0
  6  7  1  0
  7  8  2  0
  8  9  1  0
  9 10  2  0
 10 11  1  0
 11 12  1  0
 12 13  1  0
 12 14  1  0
 14 15  1  0
 15 16  1  0
 16 17  1  0
 17 18  1  0
 18 19  1  0
 19 20  1  0
 20 21  1  0
 21 22  1  0
 22 23  1  0
 10  5  1  0
 17 11  1  0
 23 18  1  0
M  END
$$$$
