
     RDKit          3D

 29 31  0  0  0  0  0  0  0  0999 V2000
   20.8610    9.2694  -14.3177 N   0  0  0  0  0  0  0  0  0  0  0  0
   20.1104    9.2504  -15.4594 C   0  0  0  0  0  0  0  0  0  0  0  0
   19.7580   10.2839  -16.0091 O   0  0  0  0  0  0  0  0  0  0  0  0
   19.7251    7.9117  -15.9800 C   0  0  0  0  0  0  0  0  0  0  0  0
   20.6876    6.8864  -15.9696 C   0  0  0  0  0  0  0  0  0  0  0  0
   20.3882    5.6311  -16.5006 C   0  0  0  0  0  0  0  0  0  0  0  0
   19.1354    5.4021  -17.0599 C   0  0  0  0  0  0  0  0  0  0  0  0
   18.7697    3.8615  -17.7321 Cl  0  0  0  0  0  0  0  0  0  0  0  0
   18.1765    6.4149  -17.0837 C   0  0  0  0  0  0  0  0  0  0  0  0
   18.4423    7.6819  -16.5217 C   0  0  0  0  0  0  0  0  0  0  0  0
   17.3900    8.7789  -16.5602 C   0  0  0  0  0  0  0  0  0  0  0  0
   16.0433    8.2039  -16.5681 N   0  0  0  0  0  0  0  0  0  0  0  0
   14.9615    9.1172  -16.5089 C   0  0  0  0  0  0  0  0  0  0  0  0
   14.9288   10.2944  -17.2668 C   0  0  0  0  0  0  0  0  0  0  0  0
   13.8213   11.1427  -17.2152 C   0  0  0  0  0  0  0  0  0  0  0  0
   12.7301   10.8011  -16.4166 C   0  0  0  0  0  0  0  0  0  0  0  0
   11.3006   11.8375  -16.3780 S   0  0  0  0  0  0  0  0  0  0  0  0
   11.3646   12.4690  -14.8237 N   0  0  0  0  0  0  0  0  0  0  0  0
   11.4965   12.9628  -17.2631 O   0  0  0  0  0  0  0  0  0  0  0  0
   10.1219   11.0062  -16.4310 O   0  0  0  0  0  0  0  0  0  0  0  0
   12.7214    9.6133  -15.6795 C   0  0  0  0  0  0  0  0  0  0  0  0
   13.8288    8.7557  -15.7215 C   0  0  0  0  0  0  0  0  0  0  0  0
   13.8575    7.5154  -15.0241 N   0  0  0  0  0  0  0  0  0  0  0  0
   13.3881    6.4234  -15.9053 C   0  0  0  0  0  0  0  0  0  0  0  0
   12.8305    5.2627  -15.0869 C   0  0  0  0  0  0  0  0  0  0  0  0
   11.6259    5.7242  -14.2770 C   0  0  0  0  0  0  0  0  0  0  0  0
   11.9302    6.9993  -13.5239 C   0  0  0  0  0  0  0  0  0  0  0  0
   11.0789    7.5309  -12.8085 O   0  0  0  0  0  0  0  0  0  0  0  0
   13.3403    7.5509  -13.6401 C   0  0  0  0  0  0  0  0  0  0  0  0
  1  2  1  0
  2  3  2  0
  2  4  1  0
  4  5  2  0
  5  6  1  0
  6  7  2  0
  7  8  1  0
  7  9  1  0
  9 10  2  0
 10 11  1  0
 11 12  1  0
 12 13  1  0
 13 14  2  0
 14 15  1  0
 15 16  2  0
 16 17  1  0
 17 18  1  0
 17 19  2  0
 17 20  2  0
 16 21  1  0
 21 22  2  0
 22 23  1  0
 23 24  1  0
 24 25  1  0
 25 26  1  0
 26 27  1  0
 27 28  2  0
 27 29  1  0
 10  4  1  0
 22 13  1  0
 29 23  1  0
M  END
$$$$
