
     RDKit          3D

 16 17  0  0  0  0  0  0  0  0999 V2000
    2.4966   13.8087   -2.1970 N   0  0  0  0  0  0  0  0  0  0  0  0
    3.0582   12.7179   -1.4118 C   0  0  0  0  0  0  0  0  0  0  0  0
    1.9618   12.0302   -0.6014 C   0  0  0  0  0  0  0  0  0  0  0  0
    2.5443   10.9481    0.2987 C   0  0  0  0  0  0  0  0  0  0  0  0
    1.4768   10.0596    0.9069 C   0  0  0  0  0  0  0  0  0  0  0  0
    1.4281    8.8599    0.6198 O   0  0  0  0  0  0  0  0  0  0  0  0
    0.5011   10.6839    1.8876 C   0  0  0  0  0  0  0  0  0  0  0  0
   -0.8047   11.0273    1.2496 C   0  0  0  0  0  0  0  0  0  0  0  0
   -1.6716   10.1413    0.6376 C   0  0  0  0  0  0  0  0  0  0  0  0
   -2.7565   10.8377    0.1829 N   0  0  0  0  0  0  0  0  0  0  0  0
   -2.6290   12.1704    0.4942 C   0  0  0  0  0  0  0  0  0  0  0  0
   -3.4912   13.2418    0.2314 C   0  0  0  0  0  0  0  0  0  0  0  0
   -3.1033   14.5098    0.6723 C   0  0  0  0  0  0  0  0  0  0  0  0
   -1.9016   14.6953    1.3499 C   0  0  0  0  0  0  0  0  0  0  0  0
   -1.0519   13.6125    1.6056 C   0  0  0  0  0  0  0  0  0  0  0  0
   -1.4165   12.3214    1.1689 C   0  0  0  0  0  0  0  0  0  0  0  0
  1  2  1  0
  2  3  1  0
  3  4  1  0
  4  5  1  0
  5  6  2  0
  5  7  1  0
  7  8  1  0
  8  9  2  0
  9 10  1  0
 10 11  1  0
 11 12  2  0
 12 13  1  0
 13 14  2  0
 14 15  1  0
 15 16  2  0
 16  8  1  0
 16 11  1  0
M  END
$$$$
