
     RDKit          3D

 25 26  0  0  0  0  0  0  0  0999 V2000
   -2.6901    9.9634   -9.0514 C   0  0  0  0  0  0  0  0  0  0  0  0
   -3.4708    9.6592   -7.8804 N   0  0  0  0  0  0  0  0  0  0  0  0
   -4.6509    8.9502   -7.9839 C   0  0  0  0  0  0  0  0  0  0  0  0
   -5.1685    8.6592   -9.0613 O   0  0  0  0  0  0  0  0  0  0  0  0
   -5.2790    8.5809   -6.6494 C   0  0  0  0  0  0  0  0  0  0  0  0
   -5.4295    7.0908   -6.4583 C   0  0  0  0  0  0  0  0  0  0  0  0
   -6.7044    6.5067   -6.4604 C   0  0  0  0  0  0  0  0  0  0  0  0
   -6.8625    5.1226   -6.3183 C   0  0  0  0  0  0  0  0  0  0  0  0
   -5.7445    4.2977   -6.1911 C   0  0  0  0  0  0  0  0  0  0  0  0
   -5.7522    2.9362   -6.0755 O   0  0  0  0  0  0  0  0  0  0  0  0
   -7.0181    2.2910   -6.1599 C   0  0  0  0  0  0  0  0  0  0  0  0
   -4.4732    4.8694   -6.1817 C   0  0  0  0  0  0  0  0  0  0  0  0
   -4.3211    6.2525   -6.2908 C   0  0  0  0  0  0  0  0  0  0  0  0
   -3.0525    6.7654   -6.3098 O   0  0  0  0  0  0  0  0  0  0  0  0
   -2.5904    6.9910   -4.9817 C   0  0  0  0  0  0  0  0  0  0  0  0
   -1.2173    7.3999   -5.0885 N   0  0  0  0  0  0  0  0  0  0  0  0
   -0.9027    8.6914   -5.4461 C   0  0  0  0  0  0  0  0  0  0  0  0
   -1.7363    9.5809   -5.5921 O   0  0  0  0  0  0  0  0  0  0  0  0
    0.5365    8.9591   -5.7301 C   0  0  0  0  0  0  0  0  0  0  0  0
    1.5590    8.1847   -5.1593 C   0  0  0  0  0  0  0  0  0  0  0  0
    2.8952    8.4473   -5.4748 C   0  0  0  0  0  0  0  0  0  0  0  0
    3.2059    9.4840   -6.3486 C   0  0  0  0  0  0  0  0  0  0  0  0
    4.4898    9.7238   -6.6548 F   0  0  0  0  0  0  0  0  0  0  0  0
    2.2063   10.2791   -6.8975 C   0  0  0  0  0  0  0  0  0  0  0  0
    0.8676   10.0188   -6.5882 C   0  0  0  0  0  0  0  0  0  0  0  0
  1  2  1  0
  2  3  1  0
  3  4  2  0
  3  5  1  0
  5  6  1  0
  6  7  2  0
  7  8  1  0
  8  9  2  0
  9 10  1  0
 10 11  1  0
  9 12  1  0
 12 13  2  0
 13 14  1  0
 14 15  1  0
 15 16  1  0
 16 17  1  0
 17 18  2  0
 17 19  1  0
 19 20  2  0
 20 21  1  0
 21 22  2  0
 22 23  1  0
 22 24  1  0
 24 25  2  0
 13  6  1  0
 25 19  1  0
M  END
$$$$
