
     RDKit          3D

 33 36  0  0  0  0  0  0  0  0999 V2000
  -15.6271   -1.1590   62.5236 N   0  0  0  0  0  0  0  0  0  0  0  0
  -16.0589   -0.1965   63.3871 C   0  0  0  0  0  0  0  0  0  0  0  0
  -15.6808   -0.2056   64.5540 O   0  0  0  0  0  0  0  0  0  0  0  0
  -17.0065    0.8396   62.8590 C   0  0  0  0  0  0  0  0  0  0  0  0
  -17.5308    1.7284   63.8176 C   0  0  0  0  0  0  0  0  0  0  0  0
  -18.4293    2.7299   63.4538 C   0  0  0  0  0  0  0  0  0  0  0  0
  -18.8099    2.8622   62.1246 C   0  0  0  0  0  0  0  0  0  0  0  0
  -18.2989    1.9912   61.1599 C   0  0  0  0  0  0  0  0  0  0  0  0
  -17.3995    0.9576   61.4992 C   0  0  0  0  0  0  0  0  0  0  0  0
  -16.8738    0.0920   60.4918 N   0  0  0  0  0  0  0  0  0  0  0  0
  -17.9322   -0.5262   59.6706 C   0  0  0  0  0  0  0  0  0  0  0  0
  -17.3150   -1.6436   58.8355 C   0  0  0  0  0  0  0  0  0  0  0  0
  -16.1956   -1.0918   57.9622 C   0  0  0  0  0  0  0  0  0  0  0  0
  -15.1609   -0.3371   58.7990 C   0  0  0  0  0  0  0  0  0  0  0  0
  -15.8030    0.7589   59.6946 C   0  0  0  0  0  0  0  0  0  0  0  0
  -14.7732    1.4475   60.4725 N   0  0  0  0  0  0  0  0  0  0  0  0
  -13.7986    2.1794   59.7030 C   0  0  0  0  0  0  0  0  0  0  0  0
  -12.5936    1.3737   59.6067 N   0  0  0  0  0  0  0  0  0  0  0  0
  -11.2890    2.1245   58.8230 S   0  0  0  0  0  0  0  0  0  0  0  0
  -10.2427    1.1396   58.6591 O   0  0  0  0  0  0  0  0  0  0  0  0
  -11.8249    2.8529   57.6915 O   0  0  0  0  0  0  0  0  0  0  0  0
  -10.7006    3.3070   60.0102 C   0  0  0  0  0  0  0  0  0  0  0  0
  -10.3277    4.5639   59.5165 C   0  0  0  0  0  0  0  0  0  0  0  0
   -9.9163    5.5195   60.4203 C   0  0  0  0  0  0  0  0  0  0  0  0
   -9.8522    5.3012   61.7472 N   0  0  0  0  0  0  0  0  0  0  0  0
  -10.2207    4.0717   62.1894 C   0  0  0  0  0  0  0  0  0  0  0  0
  -10.6707    3.0195   61.3859 C   0  0  0  0  0  0  0  0  0  0  0  0
  -11.0482    1.7657   61.9072 N   0  0  0  0  0  0  0  0  0  0  0  0
   -9.9377    0.7753   61.8741 C   0  0  0  0  0  0  0  0  0  0  0  0
   -9.6982    0.1386   63.2419 C   0  0  0  0  0  0  0  0  0  0  0  0
  -10.9737   -0.4819   63.8124 C   0  0  0  0  0  0  0  0  0  0  0  0
  -12.2169    0.3672   63.5380 C   0  0  0  0  0  0  0  0  0  0  0  0
  -11.8503    1.7962   63.1514 C   0  0  0  0  0  0  0  0  0  0  0  0
  1  2  1  0
  2  3  2  0
  2  4  1  0
  4  5  2  0
  5  6  1  0
  6  7  2  0
  7  8  1  0
  8  9  2  0
  9 10  1  0
 10 11  1  0
 11 12  1  0
 12 13  1  0
 13 14  1  0
 14 15  1  0
 15 16  1  0
 16 17  1  0
 17 18  1  0
 18 19  1  0
 19 20  2  0
 19 21  2  0
 19 22  1  0
 22 23  2  0
 23 24  1  0
 24 25  2  0
 25 26  1  0
 26 27  2  0
 27 28  1  0
 28 29  1  0
 29 30  1  0
 30 31  1  0
 31 32  1  0
 32 33  1  0
  9  4  1  0
 15 10  1  0
 27 22  1  0
 33 28  1  0
M  END
$$$$
