
     RDKit          3D

 18 19  0  0  0  0  0  0  0  0999 V2000
  -37.1010   37.3257   19.0077 N   0  0  0  0  0  0  0  0  0  0  0  0
  -37.6470   38.4062   19.8316 C   0  0  0  0  0  0  0  0  0  0  0  0
  -37.2791   39.7681   19.2556 C   0  0  0  0  0  0  0  0  0  0  0  0
  -37.8413   40.8789   20.1208 C   0  0  0  0  0  0  0  0  0  0  0  0
  -37.7772   40.8641   21.3494 O   0  0  0  0  0  0  0  0  0  0  0  0
  -38.3803   42.0844   19.4490 C   0  0  0  0  0  0  0  0  0  0  0  0
  -37.7868   43.3098   19.7945 C   0  0  0  0  0  0  0  0  0  0  0  0
  -38.1888   44.4839   19.1630 C   0  0  0  0  0  0  0  0  0  0  0  0
  -39.1813   44.4209   18.1949 C   0  0  0  0  0  0  0  0  0  0  0  0
  -39.6080   45.5427   17.5464 O   0  0  0  0  0  0  0  0  0  0  0  0
  -39.7891   43.2099   17.8613 C   0  0  0  0  0  0  0  0  0  0  0  0
  -39.4121   42.0103   18.4895 C   0  0  0  0  0  0  0  0  0  0  0  0
  -40.0724   40.7964   18.2215 N   0  0  0  0  0  0  0  0  0  0  0  0
  -41.0592   40.4543   19.2686 C   0  0  0  0  0  0  0  0  0  0  0  0
  -42.0997   39.4505   18.7630 C   0  0  0  0  0  0  0  0  0  0  0  0
  -41.4805   38.4105   17.8371 C   0  0  0  0  0  0  0  0  0  0  0  0
  -40.7433   39.0541   16.6592 C   0  0  0  0  0  0  0  0  0  0  0  0
  -40.5071   40.5547   16.8438 C   0  0  0  0  0  0  0  0  0  0  0  0
  1  2  1  0
  2  3  1  0
  3  4  1  0
  4  5  2  0
  4  6  1  0
  6  7  2  0
  7  8  1  0
  8  9  2  0
  9 10  1  0
  9 11  1  0
 11 12  2  0
 12 13  1  0
 13 14  1  0
 14 15  1  0
 15 16  1  0
 16 17  1  0
 17 18  1  0
 12  6  1  0
 18 13  1  0
M  END
$$$$
