
     RDKit          3D

 29 32  0  0  0  0  0  0  0  0999 V2000
   37.1501   15.1991   -9.6943 C   0  0  0  0  0  0  0  0  0  0  0  0
   37.9351   15.1040   -8.5125 O   0  0  0  0  0  0  0  0  0  0  0  0
   38.2540   13.8447   -8.0841 C   0  0  0  0  0  0  0  0  0  0  0  0
   38.0041   12.6592   -8.7671 C   0  0  0  0  0  0  0  0  0  0  0  0
   38.3731   11.4346   -8.1995 C   0  0  0  0  0  0  0  0  0  0  0  0
   39.0113   11.3650   -6.9465 C   0  0  0  0  0  0  0  0  0  0  0  0
   39.3518   10.0347   -6.3054 C   0  0  0  0  0  0  0  0  0  0  0  0
   39.4141    8.9000   -7.2363 N   0  0  0  0  0  0  0  0  0  0  0  0
   39.2764   12.5706   -6.2556 C   0  0  0  0  0  0  0  0  0  0  0  0
   39.8856   12.5287   -4.9762 N   0  0  0  0  0  0  0  0  0  0  0  0
   38.8987   12.7514   -3.8956 C   0  0  0  0  0  0  0  0  0  0  0  0
   38.8334   14.2033   -3.4567 C   0  0  0  0  0  0  0  0  0  0  0  0
   37.7695   14.7595   -3.1740 O   0  0  0  0  0  0  0  0  0  0  0  0
   40.1457   14.9381   -3.3417 C   0  0  0  0  0  0  0  0  0  0  0  0
   41.3206   13.9934   -3.5596 C   0  0  0  0  0  0  0  0  0  0  0  0
   41.1888   13.2524   -4.9008 C   0  0  0  0  0  0  0  0  0  0  0  0
   42.3155   12.2156   -5.1013 C   0  0  0  0  0  0  0  0  0  0  0  0
   43.7279   12.8011   -5.1098 C   0  0  0  0  0  0  0  0  0  0  0  0
   43.8868   13.6938   -6.2456 N   0  0  0  0  0  0  0  0  0  0  0  0
   45.0968   14.3937   -6.2856 C   0  0  0  0  0  0  0  0  0  0  0  0
   45.6832   14.8439   -5.1443 N   0  0  0  0  0  0  0  0  0  0  0  0
   46.8241   15.5636   -5.2384 C   0  0  0  0  0  0  0  0  0  0  0  0
   47.5138   15.9030   -6.3458 N   0  0  0  0  0  0  0  0  0  0  0  0
   46.9035   15.4240   -7.4405 C   0  0  0  0  0  0  0  0  0  0  0  0
   47.3067   15.5620   -8.7379 N   0  0  0  0  0  0  0  0  0  0  0  0
   46.4040   14.9054   -9.5254 C   0  0  0  0  0  0  0  0  0  0  0  0
   45.4360   14.3639   -8.8172 N   0  0  0  0  0  0  0  0  0  0  0  0
   45.7371   14.6849   -7.5060 C   0  0  0  0  0  0  0  0  0  0  0  0
   38.8902   13.7930   -6.8405 C   0  0  0  0  0  0  0  0  0  0  0  0
  1  2  1  0
  2  3  1  0
  3  4  2  0
  4  5  1  0
  5  6  2  0
  6  7  1  0
  7  8  1  0
  6  9  1  0
  9 10  1  0
 10 11  1  0
 11 12  1  0
 12 13  2  0
 12 14  1  0
 14 15  1  0
 15 16  1  0
 16 17  1  0
 17 18  1  0
 18 19  1  0
 19 20  1  0
 20 21  2  0
 21 22  1  0
 22 23  2  0
 23 24  1  0
 24 25  1  0
 25 26  1  0
 26 27  2  0
 27 28  1  0
  9 29  2  0
 29  3  1  0
 16 10  1  0
 28 20  1  0
 28 24  2  0
M  END
$$$$
