
     RDKit          3D

 27 29  0  0  0  0  0  0  0  0999 V2000
   -1.2089    0.9396   -2.7320 N   0  0  0  0  0  0  0  0  0  0  0  0
   -1.1221    1.1116   -4.0847 C   0  0  0  0  0  0  0  0  0  0  0  0
   -1.3700    0.2153   -4.8763 O   0  0  0  0  0  0  0  0  0  0  0  0
   -0.7672    2.4725   -4.5420 C   0  0  0  0  0  0  0  0  0  0  0  0
   -1.6719    3.1000   -5.4111 C   0  0  0  0  0  0  0  0  0  0  0  0
   -1.4274    4.3989   -5.8548 C   0  0  0  0  0  0  0  0  0  0  0  0
   -0.2802    5.0644   -5.4321 C   0  0  0  0  0  0  0  0  0  0  0  0
    0.0180    6.6720   -5.9672 Cl  0  0  0  0  0  0  0  0  0  0  0  0
    0.6334    4.4357   -4.5836 C   0  0  0  0  0  0  0  0  0  0  0  0
    0.4218    3.1146   -4.1420 C   0  0  0  0  0  0  0  0  0  0  0  0
    1.4346    2.4149   -3.2569 C   0  0  0  0  0  0  0  0  0  0  0  0
    2.7820    2.9634   -3.3997 N   0  0  0  0  0  0  0  0  0  0  0  0
    3.6739    2.3824   -4.3356 C   0  0  0  0  0  0  0  0  0  0  0  0
    3.2345    1.7633   -5.5153 C   0  0  0  0  0  0  0  0  0  0  0  0
    4.1428    1.1950   -6.4081 C   0  0  0  0  0  0  0  0  0  0  0  0
    5.4990    1.2620   -6.1307 C   0  0  0  0  0  0  0  0  0  0  0  0
    6.4220    0.7099   -6.9699 O   0  0  0  0  0  0  0  0  0  0  0  0
    5.9693    1.9126   -4.9932 C   0  0  0  0  0  0  0  0  0  0  0  0
    5.0785    2.5217   -4.0963 C   0  0  0  0  0  0  0  0  0  0  0  0
    5.5156    3.2495   -2.9659 N   0  0  0  0  0  0  0  0  0  0  0  0
    5.1950    4.6983   -3.0236 C   0  0  0  0  0  0  0  0  0  0  0  0
    6.4378    5.5636   -3.1547 C   0  0  0  0  0  0  0  0  0  0  0  0
    6.4075    6.7720   -2.9132 O   0  0  0  0  0  0  0  0  0  0  0  0
    7.6852    4.9057   -3.6691 C   0  0  0  0  0  0  0  0  0  0  0  0
    7.9714    3.6092   -2.9664 C   0  0  0  0  0  0  0  0  0  0  0  0
    9.1147    3.1531   -2.9086 O   0  0  0  0  0  0  0  0  0  0  0  0
    6.7940    2.8900   -2.3296 C   0  0  0  0  0  0  0  0  0  0  0  0
  1  2  1  0
  2  3  2  0
  2  4  1  0
  4  5  2  0
  5  6  1  0
  6  7  2  0
  7  8  1  0
  7  9  1  0
  9 10  2  0
 10 11  1  0
 11 12  1  0
 12 13  1  0
 13 14  2  0
 14 15  1  0
 15 16  2  0
 16 17  1  0
 16 18  1  0
 18 19  2  0
 19 20  1  0
 20 21  1  0
 21 22  1  0
 22 23  2  0
 22 24  1  0
 24 25  1  0
 25 26  2  0
 25 27  1  0
 10  4  1  0
 19 13  1  0
 27 20  1  0
M  END
$$$$
