
     RDKit          3D

 25 26  0  0  0  0  0  0  0  0999 V2000
   40.4824    5.9939  -36.7113 N   0  0  0  0  0  0  0  0  0  0  0  0
   41.7212    5.2316  -36.7042 C   0  0  0  0  0  0  0  0  0  0  0  0
   42.4190    5.2269  -38.0675 C   0  0  0  0  0  0  0  0  0  0  0  0
   41.5315    4.7320  -39.2099 C   0  0  0  0  0  0  0  0  0  0  0  0
   40.5966    5.8039  -39.7504 C   0  0  0  0  0  0  0  0  0  0  0  0
   40.8692    7.0049  -39.6968 O   0  0  0  0  0  0  0  0  0  0  0  0
   39.3233    5.3270  -40.4189 C   0  0  0  0  0  0  0  0  0  0  0  0
   38.2316    5.0684  -39.3888 C   0  0  0  0  0  0  0  0  0  0  0  0
   36.9257    4.6439  -40.0620 C   0  0  0  0  0  0  0  0  0  0  0  0
   35.8208    4.4063  -39.0537 C   0  0  0  0  0  0  0  0  0  0  0  0
   35.6632    3.1147  -38.5167 C   0  0  0  0  0  0  0  0  0  0  0  0
   34.6721    2.8505  -37.5740 C   0  0  0  0  0  0  0  0  0  0  0  0
   33.8285    3.8829  -37.1700 C   0  0  0  0  0  0  0  0  0  0  0  0
   32.5545    3.5727  -35.9820 S   0  0  0  0  0  0  0  0  0  0  0  0
   31.2251    3.3004  -36.9822 N   0  0  0  0  0  0  0  0  0  0  0  0
   32.3103    4.7848  -35.2374 O   0  0  0  0  0  0  0  0  0  0  0  0
   32.8190    2.3053  -35.3400 O   0  0  0  0  0  0  0  0  0  0  0  0
   33.9823    5.1762  -37.6760 C   0  0  0  0  0  0  0  0  0  0  0  0
   34.9822    5.4560  -38.6180 C   0  0  0  0  0  0  0  0  0  0  0  0
   35.1538    6.7497  -39.1367 N   0  0  0  0  0  0  0  0  0  0  0  0
   35.5587    7.7474  -38.1317 C   0  0  0  0  0  0  0  0  0  0  0  0
   35.6659    9.1176  -38.7940 C   0  0  0  0  0  0  0  0  0  0  0  0
   34.3234    9.5700  -39.3723 C   0  0  0  0  0  0  0  0  0  0  0  0
   33.3708    8.4045  -39.6397 C   0  0  0  0  0  0  0  0  0  0  0  0
   34.1177    7.1566  -40.1023 C   0  0  0  0  0  0  0  0  0  0  0  0
  1  2  1  0
  2  3  1  0
  3  4  1  0
  4  5  1  0
  5  6  2  0
  5  7  1  0
  7  8  1  0
  8  9  1  0
  9 10  1  0
 10 11  2  0
 11 12  1  0
 12 13  2  0
 13 14  1  0
 14 15  1  0
 14 16  2  0
 14 17  2  0
 13 18  1  0
 18 19  2  0
 19 20  1  0
 20 21  1  0
 21 22  1  0
 22 23  1  0
 23 24  1  0
 24 25  1  0
 19 10  1  0
 25 20  1  0
M  END
$$$$
