
     RDKit          3D

 19 20  0  0  0  0  0  0  0  0999 V2000
   14.6529   23.1968   -1.8763 N   0  0  0  0  0  0  0  0  0  0  0  0
   15.1600   22.6791   -3.1417 C   0  0  0  0  0  0  0  0  0  0  0  0
   15.1900   23.7581   -4.2139 C   0  0  0  0  0  0  0  0  0  0  0  0
   13.7979   24.1385   -4.6741 C   0  0  0  0  0  0  0  0  0  0  0  0
   13.0411   23.3183   -5.1978 O   0  0  0  0  0  0  0  0  0  0  0  0
   13.3692   25.5655   -4.4843 C   0  0  0  0  0  0  0  0  0  0  0  0
   12.9336   25.8726   -3.0786 C   0  0  0  0  0  0  0  0  0  0  0  0
   13.7270   26.3487   -2.2636 O   0  0  0  0  0  0  0  0  0  0  0  0
   11.5033   25.5567   -2.7019 C   0  0  0  0  0  0  0  0  0  0  0  0
   11.4113   24.2509   -1.9268 C   0  0  0  0  0  0  0  0  0  0  0  0
    9.9910   23.8644   -1.6621 C   0  0  0  0  0  0  0  0  0  0  0  0
    9.2444   24.1843   -0.5453 C   0  0  0  0  0  0  0  0  0  0  0  0
    7.9941   23.6481   -0.6970 N   0  0  0  0  0  0  0  0  0  0  0  0
    7.9024   22.9830   -1.8972 C   0  0  0  0  0  0  0  0  0  0  0  0
    6.8254   22.2941   -2.4681 C   0  0  0  0  0  0  0  0  0  0  0  0
    7.0246   21.7037   -3.7197 C   0  0  0  0  0  0  0  0  0  0  0  0
    8.2518   21.7998   -4.3713 C   0  0  0  0  0  0  0  0  0  0  0  0
    9.3180   22.4926   -3.7864 C   0  0  0  0  0  0  0  0  0  0  0  0
    9.1429   23.0976   -2.5246 C   0  0  0  0  0  0  0  0  0  0  0  0
  1  2  1  0
  2  3  1  0
  3  4  1  0
  4  5  2  0
  4  6  1  0
  6  7  1  0
  7  8  2  0
  7  9  1  0
  9 10  1  0
 10 11  1  0
 11 12  2  0
 12 13  1  0
 13 14  1  0
 14 15  2  0
 15 16  1  0
 16 17  2  0
 17 18  1  0
 18 19  2  0
 19 11  1  0
 19 14  1  0
M  END
$$$$
