
     RDKit          3D

 32 35  0  0  0  0  0  0  0  0999 V2000
   24.1900    8.1667  -12.5544 C   0  0  0  0  0  0  0  0  0  0  0  0
   22.9165    8.0061  -13.1671 O   0  0  0  0  0  0  0  0  0  0  0  0
   22.1733    6.9224  -12.7837 C   0  0  0  0  0  0  0  0  0  0  0  0
   20.9229    6.8339  -13.3943 C   0  0  0  0  0  0  0  0  0  0  0  0
   20.0568    5.7853  -13.0875 C   0  0  0  0  0  0  0  0  0  0  0  0
   20.4231    4.8163  -12.1468 C   0  0  0  0  0  0  0  0  0  0  0  0
   19.5539    3.7557  -11.7872 N   0  0  0  0  0  0  0  0  0  0  0  0
   18.1681    4.0873  -11.5024 C   0  0  0  0  0  0  0  0  0  0  0  0
   17.9296    4.9356  -10.3422 N   0  0  0  0  0  0  0  0  0  0  0  0
   16.5853    5.5389  -10.3888 C   0  0  0  0  0  0  0  0  0  0  0  0
   16.5229    6.5009   -9.1515 C   0  0  0  0  0  0  0  0  0  0  0  0
   16.9531    5.8411   -7.9556 O   0  0  0  0  0  0  0  0  0  0  0  0
   15.0933    6.9855   -9.0198 C   0  0  0  0  0  0  0  0  0  0  0  0
   14.8082    8.1859   -9.0404 O   0  0  0  0  0  0  0  0  0  0  0  0
   14.0208    5.9401   -8.8637 C   0  0  0  0  0  0  0  0  0  0  0  0
   14.5685    4.5653   -9.2064 C   0  0  0  0  0  0  0  0  0  0  0  0
   15.4387    4.5992  -10.3925 N   0  0  0  0  0  0  0  0  0  0  0  0
   14.7288    4.4686  -11.6066 C   0  0  0  0  0  0  0  0  0  0  0  0
   14.2198    5.5419  -12.3438 C   0  0  0  0  0  0  0  0  0  0  0  0
   13.5256    5.4282  -13.5002 N   0  0  0  0  0  0  0  0  0  0  0  0
   13.3298    4.1774  -13.9635 C   0  0  0  0  0  0  0  0  0  0  0  0
   13.7779    3.0371  -13.3195 C   0  0  0  0  0  0  0  0  0  0  0  0
   14.4548    3.1784  -12.1102 C   0  0  0  0  0  0  0  0  0  0  0  0
   15.0465    2.0503  -11.5065 N   0  0  0  0  0  0  0  0  0  0  0  0
   21.7253    4.8545  -11.5648 C   0  0  0  0  0  0  0  0  0  0  0  0
   22.1075    3.8220  -10.6874 N   0  0  0  0  0  0  0  0  0  0  0  0
   22.3992    2.5350  -11.3453 C   0  0  0  0  0  0  0  0  0  0  0  0
   23.8956    2.3715  -11.5981 C   0  0  0  0  0  0  0  0  0  0  0  0
   24.6848    2.5386  -10.3047 C   0  0  0  0  0  0  0  0  0  0  0  0
   24.3908    3.8932   -9.6712 C   0  0  0  0  0  0  0  0  0  0  0  0
   22.8912    4.1275   -9.4859 C   0  0  0  0  0  0  0  0  0  0  0  0
   22.5684    5.9332  -11.8784 C   0  0  0  0  0  0  0  0  0  0  0  0
  1  2  1  0
  2  3  1  0
  3  4  2  0
  4  5  1  0
  5  6  2  0
  6  7  1  0
  7  8  1  0
  8  9  1  0
  9 10  1  0
 10 11  1  0
 11 12  1  0
 11 13  1  0
 13 14  2  0
 13 15  1  0
 15 16  1  0
 16 17  1  0
 17 18  1  0
 18 19  2  0
 19 20  1  0
 20 21  2  0
 21 22  1  0
 22 23  2  0
 23 24  1  0
  6 25  1  0
 25 26  1  0
 26 27  1  0
 27 28  1  0
 28 29  1  0
 29 30  1  0
 30 31  1  0
 25 32  2  0
 32  3  1  0
 17 10  1  0
 23 18  1  0
 31 26  1  0
M  END
$$$$
