
     RDKit          3D

 19 20  0  0  0  0  0  0  0  0999 V2000
   -1.2073    0.6760   -1.1984 N   0  0  0  0  0  0  0  0  0  0  0  0
   -0.7002    0.1584   -2.4638 C   0  0  0  0  0  0  0  0  0  0  0  0
   -0.6702    1.2373   -3.5360 C   0  0  0  0  0  0  0  0  0  0  0  0
   -2.0622    1.6178   -3.9963 C   0  0  0  0  0  0  0  0  0  0  0  0
   -2.8190    0.7976   -4.5200 O   0  0  0  0  0  0  0  0  0  0  0  0
   -2.4909    3.0448   -3.8064 C   0  0  0  0  0  0  0  0  0  0  0  0
   -2.9266    3.3519   -2.4007 C   0  0  0  0  0  0  0  0  0  0  0  0
   -2.1331    3.8279   -1.5857 O   0  0  0  0  0  0  0  0  0  0  0  0
   -4.3568    3.0360   -2.0240 C   0  0  0  0  0  0  0  0  0  0  0  0
   -4.4489    1.7301   -1.2489 C   0  0  0  0  0  0  0  0  0  0  0  0
   -5.8692    1.3437   -0.9842 C   0  0  0  0  0  0  0  0  0  0  0  0
   -6.6158    1.6636    0.1325 C   0  0  0  0  0  0  0  0  0  0  0  0
   -7.8661    1.1273   -0.0191 N   0  0  0  0  0  0  0  0  0  0  0  0
   -7.9578    0.4622   -1.2193 C   0  0  0  0  0  0  0  0  0  0  0  0
   -9.0347   -0.2267   -1.7902 C   0  0  0  0  0  0  0  0  0  0  0  0
   -8.8355   -0.8170   -3.0418 C   0  0  0  0  0  0  0  0  0  0  0  0
   -7.6083   -0.7209   -3.6935 C   0  0  0  0  0  0  0  0  0  0  0  0
   -6.5421   -0.0282   -3.1085 C   0  0  0  0  0  0  0  0  0  0  0  0
   -6.7173    0.5768   -1.8467 C   0  0  0  0  0  0  0  0  0  0  0  0
  1  2  1  0
  2  3  1  0
  3  4  1  0
  4  5  2  0
  4  6  1  0
  6  7  1  0
  7  8  2  0
  7  9  1  0
  9 10  1  0
 10 11  1  0
 11 12  2  0
 12 13  1  0
 13 14  1  0
 14 15  2  0
 15 16  1  0
 16 17  2  0
 17 18  1  0
 18 19  2  0
 19 11  1  0
 19 14  1  0
M  END
$$$$
