
     RDKit          3D

 26 28  0  0  0  0  0  0  0  0999 V2000
  -22.2539    5.9832   26.2048 C   0  0  0  0  0  0  0  0  0  0  0  0
  -22.6361    7.0101   25.2496 N   0  0  0  0  0  0  0  0  0  0  0  0
  -21.6980    7.4732   24.3245 C   0  0  0  0  0  0  0  0  0  0  0  0
  -21.9607    8.6681   23.6471 C   0  0  0  0  0  0  0  0  0  0  0  0
  -21.1055    9.1513   22.6502 C   0  0  0  0  0  0  0  0  0  0  0  0
  -19.9658    8.4337   22.2862 C   0  0  0  0  0  0  0  0  0  0  0  0
  -19.0605    8.8368   21.3388 O   0  0  0  0  0  0  0  0  0  0  0  0
  -19.3528   10.0297   20.6188 C   0  0  0  0  0  0  0  0  0  0  0  0
  -19.7054    7.2067   22.9129 C   0  0  0  0  0  0  0  0  0  0  0  0
  -18.4801    6.3793   22.5849 C   0  0  0  0  0  0  0  0  0  0  0  0
  -17.4665    6.6222   23.6099 N   0  0  0  0  0  0  0  0  0  0  0  0
  -16.1553    6.1951   23.2855 C   0  0  0  0  0  0  0  0  0  0  0  0
  -15.8988    4.8519   22.9999 C   0  0  0  0  0  0  0  0  0  0  0  0
  -14.5876    4.4526   22.8158 C   0  0  0  0  0  0  0  0  0  0  0  0
  -13.5315    5.2857   22.8981 N   0  0  0  0  0  0  0  0  0  0  0  0
  -13.8034    6.5841   23.1725 C   0  0  0  0  0  0  0  0  0  0  0  0
  -15.0813    7.1206   23.3546 C   0  0  0  0  0  0  0  0  0  0  0  0
  -15.3412    8.4840   23.5926 N   0  0  0  0  0  0  0  0  0  0  0  0
  -15.9987    9.2080   22.4788 C   0  0  0  0  0  0  0  0  0  0  0  0
  -15.0799   10.2312   21.8259 C   0  0  0  0  0  0  0  0  0  0  0  0
  -15.5114   11.0745   21.0272 O   0  0  0  0  0  0  0  0  0  0  0  0
  -13.6091   10.1286   22.1207 C   0  0  0  0  0  0  0  0  0  0  0  0
  -13.3230    9.9306   23.5825 C   0  0  0  0  0  0  0  0  0  0  0  0
  -12.2557   10.2984   24.0801 O   0  0  0  0  0  0  0  0  0  0  0  0
  -14.3976    9.2583   24.4195 C   0  0  0  0  0  0  0  0  0  0  0  0
  -20.5766    6.7427   23.9235 C   0  0  0  0  0  0  0  0  0  0  0  0
  1  2  1  0
  2  3  1  0
  3  4  2  0
  4  5  1  0
  5  6  2  0
  6  7  1  0
  7  8  1  0
  6  9  1  0
  9 10  1  0
 10 11  1  0
 11 12  1  0
 12 13  2  0
 13 14  1  0
 14 15  2  0
 15 16  1  0
 16 17  2  0
 17 18  1  0
 18 19  1  0
 19 20  1  0
 20 21  2  0
 20 22  1  0
 22 23  1  0
 23 24  2  0
 23 25  1  0
  9 26  2  0
 26  3  1  0
 17 12  1  0
 25 18  1  0
M  END
$$$$
