
     RDKit          3D

 29 32  0  0  0  0  0  0  0  0999 V2000
   -2.4934   14.3154   -5.3583 N   0  0  0  0  0  0  0  0  0  0  0  0
   -1.7849   15.7520   -4.8102 S   0  0  0  0  0  0  0  0  0  0  0  0
   -2.0103   16.6707   -5.9039 O   0  0  0  0  0  0  0  0  0  0  0  0
   -0.4707   15.3416   -4.3665 O   0  0  0  0  0  0  0  0  0  0  0  0
   -2.7571   16.2191   -3.4135 C   0  0  0  0  0  0  0  0  0  0  0  0
   -3.7210   15.3322   -2.9191 C   0  0  0  0  0  0  0  0  0  0  0  0
   -4.4540   15.7168   -1.8140 C   0  0  0  0  0  0  0  0  0  0  0  0
   -4.2899   16.8969   -1.1892 N   0  0  0  0  0  0  0  0  0  0  0  0
   -3.3461   17.7290   -1.6965 C   0  0  0  0  0  0  0  0  0  0  0  0
   -2.5395   17.4638   -2.8056 C   0  0  0  0  0  0  0  0  0  0  0  0
   -1.5934   18.3687   -3.2789 N   0  0  0  0  0  0  0  0  0  0  0  0
   -2.0982   19.4428   -4.1450 C   0  0  0  0  0  0  0  0  0  0  0  0
   -2.3169   20.7362   -3.3667 C   0  0  0  0  0  0  0  0  0  0  0  0
   -1.0678   21.1337   -2.5867 C   0  0  0  0  0  0  0  0  0  0  0  0
   -0.6127   19.9970   -1.6737 C   0  0  0  0  0  0  0  0  0  0  0  0
   -0.4249   18.6626   -2.4174 C   0  0  0  0  0  0  0  0  0  0  0  0
    0.8452   18.6276   -3.2977 C   0  0  0  0  0  0  0  0  0  0  0  0
    2.1679   18.6274   -2.5231 C   0  0  0  0  0  0  0  0  0  0  0  0
    2.2596   17.4583   -1.6444 N   0  0  0  0  0  0  0  0  0  0  0  0
    3.5428   17.4029   -0.9367 C   0  0  0  0  0  0  0  0  0  0  0  0
    4.6770   16.9821   -1.8144 C   0  0  0  0  0  0  0  0  0  0  0  0
    5.5697   17.7632   -2.3911 N   0  0  0  0  0  0  0  0  0  0  0  0
    6.3985   16.9228   -3.0937 C   0  0  0  0  0  0  0  0  0  0  0  0
    7.5149   17.2207   -3.8881 C   0  0  0  0  0  0  0  0  0  0  0  0
    8.2006   16.1665   -4.5058 C   0  0  0  0  0  0  0  0  0  0  0  0
    7.7826   14.8437   -4.3361 C   0  0  0  0  0  0  0  0  0  0  0  0
    6.6699   14.5274   -3.5472 C   0  0  0  0  0  0  0  0  0  0  0  0
    6.0063   15.5978   -2.9433 C   0  0  0  0  0  0  0  0  0  0  0  0
    4.9084   15.6631   -2.1254 N   0  0  0  0  0  0  0  0  0  0  0  0
  1  2  1  0
  2  3  2  0
  2  4  2  0
  2  5  1  0
  5  6  2  0
  6  7  1  0
  7  8  2  0
  8  9  1  0
  9 10  2  0
 10 11  1  0
 11 12  1  0
 12 13  1  0
 13 14  1  0
 14 15  1  0
 15 16  1  0
 16 17  1  0
 17 18  1  0
 18 19  1  0
 19 20  1  0
 20 21  1  0
 21 22  2  0
 22 23  1  0
 23 24  2  0
 24 25  1  0
 25 26  2  0
 26 27  1  0
 27 28  2  0
 28 29  1  0
 10  5  1  0
 16 11  1  0
 29 21  1  0
 28 23  1  0
M  END
$$$$
