
     RDKit          3D

 26 29  0  0  0  0  0  0  0  0999 V2000
  -21.1095    9.2660   23.7472 N   0  0  0  0  0  0  0  0  0  0  0  0
  -20.6922    8.3457   22.6808 C   0  0  0  0  0  0  0  0  0  0  0  0
  -20.7217    8.9485   21.2922 C   0  0  0  0  0  0  0  0  0  0  0  0
  -20.7433   10.3405   21.0989 C   0  0  0  0  0  0  0  0  0  0  0  0
  -20.7741   10.8523   19.8098 C   0  0  0  0  0  0  0  0  0  0  0  0
  -20.7708   10.0896   18.7011 N   0  0  0  0  0  0  0  0  0  0  0  0
  -20.7171    8.7527   18.9046 C   0  0  0  0  0  0  0  0  0  0  0  0
  -20.6798    8.1174   20.1566 C   0  0  0  0  0  0  0  0  0  0  0  0
  -20.5863    6.7208   20.3036 N   0  0  0  0  0  0  0  0  0  0  0  0
  -21.8364    6.0469   19.8932 C   0  0  0  0  0  0  0  0  0  0  0  0
  -21.5968    4.5740   19.5804 C   0  0  0  0  0  0  0  0  0  0  0  0
  -20.5824    4.4109   18.4497 C   0  0  0  0  0  0  0  0  0  0  0  0
  -19.4317    5.4194   18.5240 C   0  0  0  0  0  0  0  0  0  0  0  0
  -19.3046    6.0546   19.9173 C   0  0  0  0  0  0  0  0  0  0  0  0
  -18.0604    6.9563   20.0669 C   0  0  0  0  0  0  0  0  0  0  0  0
  -16.7488    6.1740   19.9761 C   0  0  0  0  0  0  0  0  0  0  0  0
  -15.6384    7.0484   20.3072 N   0  0  0  0  0  0  0  0  0  0  0  0
  -14.3710    6.4580   20.2958 C   0  0  0  0  0  0  0  0  0  0  0  0
  -14.2095    5.1334   20.5621 N   0  0  0  0  0  0  0  0  0  0  0  0
  -12.9585    4.6197   20.5733 C   0  0  0  0  0  0  0  0  0  0  0  0
  -11.7888    5.2495   20.3385 N   0  0  0  0  0  0  0  0  0  0  0  0
  -12.0020    6.5435   20.0704 C   0  0  0  0  0  0  0  0  0  0  0  0
  -11.0591    7.4903   19.7885 N   0  0  0  0  0  0  0  0  0  0  0  0
  -11.7122    8.6713   19.5684 C   0  0  0  0  0  0  0  0  0  0  0  0
  -13.0173    8.5409   19.6959 N   0  0  0  0  0  0  0  0  0  0  0  0
  -13.2120    7.2122   20.0234 C   0  0  0  0  0  0  0  0  0  0  0  0
  1  2  1  0
  2  3  1  0
  3  4  2  0
  4  5  1  0
  5  6  2  0
  6  7  1  0
  7  8  2  0
  8  9  1  0
  9 10  1  0
 10 11  1  0
 11 12  1  0
 12 13  1  0
 13 14  1  0
 14 15  1  0
 15 16  1  0
 16 17  1  0
 17 18  1  0
 18 19  2  0
 19 20  1  0
 20 21  2  0
 21 22  1  0
 22 23  1  0
 23 24  1  0
 24 25  2  0
 25 26  1  0
  8  3  1  0
 14  9  1  0
 26 18  1  0
 26 22  2  0
M  END
$$$$
