
     RDKit          3D

 16 17  0  0  0  0  0  0  0  0999 V2000
    3.0157   22.2165   -9.0682 N   0  0  0  0  0  0  0  0  0  0  0  0
    1.7676   22.1248   -8.3068 C   0  0  0  0  0  0  0  0  0  0  0  0
    1.7465   20.8191   -7.5218 C   0  0  0  0  0  0  0  0  0  0  0  0
    2.2218   20.7562   -6.3851 O   0  0  0  0  0  0  0  0  0  0  0  0
    1.2089   19.5985   -8.2456 C   0  0  0  0  0  0  0  0  0  0  0  0
    0.7374   18.4854   -7.3081 C   0  0  0  0  0  0  0  0  0  0  0  0
   -0.3734   18.8864   -6.3282 C   0  0  0  0  0  0  0  0  0  0  0  0
   -1.5624   19.5110   -6.9884 C   0  0  0  0  0  0  0  0  0  0  0  0
   -2.4933   18.8678   -7.7809 C   0  0  0  0  0  0  0  0  0  0  0  0
   -3.4064   19.7924   -8.2099 N   0  0  0  0  0  0  0  0  0  0  0  0
   -3.0938   21.0363   -7.7143 C   0  0  0  0  0  0  0  0  0  0  0  0
   -3.7362   22.2671   -7.8958 C   0  0  0  0  0  0  0  0  0  0  0  0
   -3.1935   23.3830   -7.2521 C   0  0  0  0  0  0  0  0  0  0  0  0
   -2.0567   23.2693   -6.4561 C   0  0  0  0  0  0  0  0  0  0  0  0
   -1.4273   22.0310   -6.2856 C   0  0  0  0  0  0  0  0  0  0  0  0
   -1.9498   20.8897   -6.9297 C   0  0  0  0  0  0  0  0  0  0  0  0
  1  2  1  0
  2  3  1  0
  3  4  2  0
  3  5  1  0
  5  6  1  0
  6  7  1  0
  7  8  1  0
  8  9  2  0
  9 10  1  0
 10 11  1  0
 11 12  2  0
 12 13  1  0
 13 14  2  0
 14 15  1  0
 15 16  2  0
 16  8  1  0
 16 11  1  0
M  END
$$$$
