
     RDKit          3D

 19 20  0  0  0  0  0  0  0  0999 V2000
    7.3141   14.2918  -32.6483 N   0  0  0  0  0  0  0  0  0  0  0  0
    6.6748   15.6066  -32.6599 C   0  0  0  0  0  0  0  0  0  0  0  0
    6.0248   15.9536  -31.3278 C   0  0  0  0  0  0  0  0  0  0  0  0
    4.6956   15.2523  -31.1349 C   0  0  0  0  0  0  0  0  0  0  0  0
    4.5377   14.4354  -30.2244 O   0  0  0  0  0  0  0  0  0  0  0  0
    3.5824   15.5815  -32.1151 C   0  0  0  0  0  0  0  0  0  0  0  0
    2.2049   15.3870  -31.4958 C   0  0  0  0  0  0  0  0  0  0  0  0
    1.9352   16.3834  -30.3818 C   0  0  0  0  0  0  0  0  0  0  0  0
    2.6687   17.3567  -30.1938 O   0  0  0  0  0  0  0  0  0  0  0  0
    0.7013   16.1386  -29.5334 C   0  0  0  0  0  0  0  0  0  0  0  0
   -0.5490   16.4222  -30.2950 C   0  0  0  0  0  0  0  0  0  0  0  0
   -1.0885   17.6693  -30.5367 C   0  0  0  0  0  0  0  0  0  0  0  0
   -2.2281   17.5101  -31.2762 N   0  0  0  0  0  0  0  0  0  0  0  0
   -2.4416   16.1816  -31.5394 C   0  0  0  0  0  0  0  0  0  0  0  0
   -3.4668   15.5631  -32.2646 C   0  0  0  0  0  0  0  0  0  0  0  0
   -3.4323   14.1674  -32.3796 C   0  0  0  0  0  0  0  0  0  0  0  0
   -2.4122   13.4271  -31.7906 C   0  0  0  0  0  0  0  0  0  0  0  0
   -1.3976   14.0617  -31.0636 C   0  0  0  0  0  0  0  0  0  0  0  0
   -1.4080   15.4691  -30.9334 C   0  0  0  0  0  0  0  0  0  0  0  0
  1  2  1  0
  2  3  1  0
  3  4  1  0
  4  5  2  0
  4  6  1  0
  6  7  1  0
  7  8  1  0
  8  9  2  0
  8 10  1  0
 10 11  1  0
 11 12  2  0
 12 13  1  0
 13 14  1  0
 14 15  2  0
 15 16  1  0
 16 17  2  0
 17 18  1  0
 18 19  2  0
 19 11  1  0
 19 14  1  0
M  END
$$$$
