
     RDKit          3D

 18 19  0  0  0  0  0  0  0  0999 V2000
   26.9298    9.3743  -15.5352 N   0  0  0  0  0  0  0  0  0  0  0  0
   26.1091    8.3321  -16.1414 C   0  0  0  0  0  0  0  0  0  0  0  0
   26.2118    7.0406  -15.3284 C   0  0  0  0  0  0  0  0  0  0  0  0
   25.4649    5.8774  -15.9801 C   0  0  0  0  0  0  0  0  0  0  0  0
   23.9500    5.9899  -15.9084 C   0  0  0  0  0  0  0  0  0  0  0  0
   23.3813    6.8991  -15.3055 O   0  0  0  0  0  0  0  0  0  0  0  0
   23.1750    4.8916  -16.6237 C   0  0  0  0  0  0  0  0  0  0  0  0
   21.6614    5.0585  -16.5056 C   0  0  0  0  0  0  0  0  0  0  0  0
   21.1330    6.1990  -17.3807 C   0  0  0  0  0  0  0  0  0  0  0  0
   19.7046    6.4875  -17.0775 C   0  0  0  0  0  0  0  0  0  0  0  0
   18.6498    6.0104  -17.7045 N   0  0  0  0  0  0  0  0  0  0  0  0
   17.5640    6.5562  -17.0631 C   0  0  0  0  0  0  0  0  0  0  0  0
   16.1948    6.3892  -17.3156 C   0  0  0  0  0  0  0  0  0  0  0  0
   15.2742    7.0653  -16.5043 C   0  0  0  0  0  0  0  0  0  0  0  0
   15.7085    7.8902  -15.4633 C   0  0  0  0  0  0  0  0  0  0  0  0
   17.0711    8.0693  -15.1962 C   0  0  0  0  0  0  0  0  0  0  0  0
   17.9658    7.3840  -16.0207 C   0  0  0  0  0  0  0  0  0  0  0  0
   19.3346    7.3235  -16.0514 N   0  0  0  0  0  0  0  0  0  0  0  0
  1  2  1  0
  2  3  1  0
  3  4  1  0
  4  5  1  0
  5  6  2  0
  5  7  1  0
  7  8  1  0
  8  9  1  0
  9 10  1  0
 10 11  2  0
 11 12  1  0
 12 13  2  0
 13 14  1  0
 14 15  2  0
 15 16  1  0
 16 17  2  0
 17 18  1  0
 18 10  1  0
 17 12  1  0
M  END
$$$$
