
     RDKit          3D

 16 17  0  0  0  0  0  0  0  0999 V2000
   17.2706   -8.6214  -12.8131 N   0  0  0  0  0  0  0  0  0  0  0  0
   17.8322   -9.7122  -12.0280 C   0  0  0  0  0  0  0  0  0  0  0  0
   16.7358  -10.3998  -11.2175 C   0  0  0  0  0  0  0  0  0  0  0  0
   17.3183  -11.4820  -10.3174 C   0  0  0  0  0  0  0  0  0  0  0  0
   16.2508  -12.3705   -9.7093 C   0  0  0  0  0  0  0  0  0  0  0  0
   16.2021  -13.5701   -9.9963 O   0  0  0  0  0  0  0  0  0  0  0  0
   15.2751  -11.7462   -8.7285 C   0  0  0  0  0  0  0  0  0  0  0  0
   13.9693  -11.4028   -9.3665 C   0  0  0  0  0  0  0  0  0  0  0  0
   13.1024  -12.2887   -9.9786 C   0  0  0  0  0  0  0  0  0  0  0  0
   12.0175  -11.5923  -10.4332 N   0  0  0  0  0  0  0  0  0  0  0  0
   12.1450  -10.2597  -10.1219 C   0  0  0  0  0  0  0  0  0  0  0  0
   11.2828   -9.1882  -10.3847 C   0  0  0  0  0  0  0  0  0  0  0  0
   11.6707   -7.9203   -9.9439 C   0  0  0  0  0  0  0  0  0  0  0  0
   12.8724   -7.7347   -9.2662 C   0  0  0  0  0  0  0  0  0  0  0  0
   13.7221   -8.8176   -9.0106 C   0  0  0  0  0  0  0  0  0  0  0  0
   13.3575  -10.1087   -9.4472 C   0  0  0  0  0  0  0  0  0  0  0  0
  1  2  1  0
  2  3  1  0
  3  4  1  0
  4  5  1  0
  5  6  2  0
  5  7  1  0
  7  8  1  0
  8  9  2  0
  9 10  1  0
 10 11  1  0
 11 12  2  0
 12 13  1  0
 13 14  2  0
 14 15  1  0
 15 16  2  0
 16  8  1  0
 16 11  1  0
M  END
$$$$
