
     RDKit          3D

 17 18  0  0  0  0  0  0  0  0999 V2000
   -3.3295    7.9086  -48.9900 C   0  0  0  0  0  0  0  0  0  0  0  0
   -4.0131    9.1208  -48.6988 O   0  0  0  0  0  0  0  0  0  0  0  0
   -3.2373   10.2058  -48.3980 C   0  0  0  0  0  0  0  0  0  0  0  0
   -3.9383   11.3750  -48.1385 C   0  0  0  0  0  0  0  0  0  0  0  0
   -3.2585   12.5506  -47.8132 C   0  0  0  0  0  0  0  0  0  0  0  0
   -1.8535   12.5942  -47.7254 C   0  0  0  0  0  0  0  0  0  0  0  0
   -1.1627   13.8926  -47.3482 C   0  0  0  0  0  0  0  0  0  0  0  0
   -1.9366   14.9143  -46.4908 C   0  0  0  0  0  0  0  0  0  0  0  0
   -2.8450   15.7604  -47.2667 N   0  0  0  0  0  0  0  0  0  0  0  0
   -1.1316   11.4151  -48.0247 C   0  0  0  0  0  0  0  0  0  0  0  0
    0.2642   11.2835  -48.0333 N   0  0  0  0  0  0  0  0  0  0  0  0
    1.0325   12.1865  -48.8906 C   0  0  0  0  0  0  0  0  0  0  0  0
    2.4077   11.5671  -49.1473 C   0  0  0  0  0  0  0  0  0  0  0  0
    3.1174   11.2446  -47.8317 C   0  0  0  0  0  0  0  0  0  0  0  0
    2.2412   10.3667  -46.9378 C   0  0  0  0  0  0  0  0  0  0  0  0
    0.8571   10.9837  -46.7266 C   0  0  0  0  0  0  0  0  0  0  0  0
   -1.8461   10.2355  -48.3401 C   0  0  0  0  0  0  0  0  0  0  0  0
  1  2  1  0
  2  3  1  0
  3  4  2  0
  4  5  1  0
  5  6  2  0
  6  7  1  0
  7  8  1  0
  8  9  1  0
  6 10  1  0
 10 11  1  0
 11 12  1  0
 12 13  1  0
 13 14  1  0
 14 15  1  0
 15 16  1  0
 10 17  2  0
 17  3  1  0
 16 11  1  0
M  END
$$$$
