
     RDKit          3D

 28 31  0  0  0  0  0  0  0  0999 V2000
    9.9087   -2.3477  -20.2942 N   0  0  0  0  0  0  0  0  0  0  0  0
   10.9943   -3.5473  -20.7908 S   0  0  0  0  0  0  0  0  0  0  0  0
   10.7021   -3.7154  -22.1962 O   0  0  0  0  0  0  0  0  0  0  0  0
   12.2647   -3.0689  -20.2923 O   0  0  0  0  0  0  0  0  0  0  0  0
   10.4925   -4.9942  -19.9100 C   0  0  0  0  0  0  0  0  0  0  0  0
    9.2999   -4.9575  -19.1747 C   0  0  0  0  0  0  0  0  0  0  0  0
    8.9604   -6.0618  -18.4196 C   0  0  0  0  0  0  0  0  0  0  0  0
    9.7165   -7.1700  -18.3502 N   0  0  0  0  0  0  0  0  0  0  0  0
   10.8578   -7.1739  -19.0832 C   0  0  0  0  0  0  0  0  0  0  0  0
   11.3156   -6.1304  -19.8952 C   0  0  0  0  0  0  0  0  0  0  0  0
   12.4851   -6.2458  -20.6393 N   0  0  0  0  0  0  0  0  0  0  0  0
   12.3318   -6.4268  -22.0917 C   0  0  0  0  0  0  0  0  0  0  0  0
   13.0510   -7.6664  -22.6232 C   0  0  0  0  0  0  0  0  0  0  0  0
   13.2610   -8.7190  -21.5502 C   0  0  0  0  0  0  0  0  0  0  0  0
   14.0858   -8.1622  -20.3929 C   0  0  0  0  0  0  0  0  0  0  0  0
   13.7167   -6.7259  -19.9806 C   0  0  0  0  0  0  0  0  0  0  0  0
   14.8691   -5.6932  -20.1801 C   0  0  0  0  0  0  0  0  0  0  0  0
   15.4025   -5.6031  -21.5502 N   0  0  0  0  0  0  0  0  0  0  0  0
   16.0901   -4.3310  -21.7899 C   0  0  0  0  0  0  0  0  0  0  0  0
   17.3419   -4.2014  -20.9836 C   0  0  0  0  0  0  0  0  0  0  0  0
   18.3379   -5.0652  -20.9199 N   0  0  0  0  0  0  0  0  0  0  0  0
   19.2396   -4.5219  -20.0379 C   0  0  0  0  0  0  0  0  0  0  0  0
   20.4772   -5.0158  -19.6017 C   0  0  0  0  0  0  0  0  0  0  0  0
   21.2150   -4.2610  -18.6805 C   0  0  0  0  0  0  0  0  0  0  0  0
   20.7297   -3.0405  -18.2037 C   0  0  0  0  0  0  0  0  0  0  0  0
   19.4963   -2.5315  -18.6277 C   0  0  0  0  0  0  0  0  0  0  0  0
   18.7832   -3.3039  -19.5467 C   0  0  0  0  0  0  0  0  0  0  0  0
   17.5725   -3.1239  -20.1636 N   0  0  0  0  0  0  0  0  0  0  0  0
  1  2  1  0
  2  3  2  0
  2  4  2  0
  2  5  1  0
  5  6  2  0
  6  7  1  0
  7  8  2  0
  8  9  1  0
  9 10  2  0
 10 11  1  0
 11 12  1  0
 12 13  1  0
 13 14  1  0
 14 15  1  0
 15 16  1  0
 16 17  1  0
 17 18  1  0
 18 19  1  0
 19 20  1  0
 20 21  2  0
 21 22  1  0
 22 23  2  0
 23 24  1  0
 24 25  2  0
 25 26  1  0
 26 27  2  0
 27 28  1  0
 10  5  1  0
 16 11  1  0
 28 20  1  0
 27 22  1  0
M  END
$$$$
