
     RDKit          3D

 27 30  0  0  0  0  0  0  0  0999 V2000
   99.7917   11.3142  -73.8146 N   0  0  0  0  0  0  0  0  0  0  0  0
  100.7929    9.9567  -73.7525 S   0  0  0  0  0  0  0  0  0  0  0  0
  101.5576   10.0067  -74.9768 O   0  0  0  0  0  0  0  0  0  0  0  0
   99.8845    8.8785  -73.4361 O   0  0  0  0  0  0  0  0  0  0  0  0
  101.8747   10.2455  -72.3880 C   0  0  0  0  0  0  0  0  0  0  0  0
  101.9437   11.5535  -71.8808 C   0  0  0  0  0  0  0  0  0  0  0  0
  102.6480   11.7788  -70.7154 C   0  0  0  0  0  0  0  0  0  0  0  0
  103.2608   10.8034  -70.0271 N   0  0  0  0  0  0  0  0  0  0  0  0
  103.1885    9.5589  -70.5565 C   0  0  0  0  0  0  0  0  0  0  0  0
  102.5460    9.1938  -71.7512 C   0  0  0  0  0  0  0  0  0  0  0  0
  102.6605    7.8768  -72.1759 N   0  0  0  0  0  0  0  0  0  0  0  0
  102.0052    6.8661  -71.3301 C   0  0  0  0  0  0  0  0  0  0  0  0
  101.2720    5.8345  -72.1799 C   0  0  0  0  0  0  0  0  0  0  0  0
  102.2013    5.1254  -73.1608 C   0  0  0  0  0  0  0  0  0  0  0  0
  103.4087    5.9743  -73.5556 C   0  0  0  0  0  0  0  0  0  0  0  0
  103.0835    7.4817  -73.5516 C   0  0  0  0  0  0  0  0  0  0  0  0
  104.3226    8.2779  -74.0553 C   0  0  0  0  0  0  0  0  0  0  0  0
  105.4256    8.2038  -73.0915 N   0  0  0  0  0  0  0  0  0  0  0  0
  106.5514    8.8791  -73.3922 C   0  0  0  0  0  0  0  0  0  0  0  0
  106.9523    9.3382  -74.5535 N   0  0  0  0  0  0  0  0  0  0  0  0
  108.1549    9.9554  -74.3101 C   0  0  0  0  0  0  0  0  0  0  0  0
  109.0186   10.6200  -75.1927 C   0  0  0  0  0  0  0  0  0  0  0  0
  110.2007   11.1751  -74.6856 C   0  0  0  0  0  0  0  0  0  0  0  0
  110.5158   11.0709  -73.3282 C   0  0  0  0  0  0  0  0  0  0  0  0
  109.6671   10.4097  -72.4319 C   0  0  0  0  0  0  0  0  0  0  0  0
  108.4968    9.8668  -72.9656 C   0  0  0  0  0  0  0  0  0  0  0  0
  107.4579    9.1688  -72.4072 N   0  0  0  0  0  0  0  0  0  0  0  0
  1  2  1  0
  2  3  2  0
  2  4  2  0
  2  5  1  0
  5  6  2  0
  6  7  1  0
  7  8  2  0
  8  9  1  0
  9 10  2  0
 10 11  1  0
 11 12  1  0
 12 13  1  0
 13 14  1  0
 14 15  1  0
 15 16  1  0
 16 17  1  0
 17 18  1  0
 18 19  1  0
 19 20  2  0
 20 21  1  0
 21 22  2  0
 22 23  1  0
 23 24  2  0
 24 25  1  0
 25 26  2  0
 26 27  1  0
 10  5  1  0
 16 11  1  0
 27 19  1  0
 26 21  1  0
M  END
$$$$
