
     RDKit          3D

 28 31  0  0  0  0  0  0  0  0999 V2000
   11.8949    7.5249  -13.1465 N   0  0  0  0  0  0  0  0  0  0  0  0
   11.7167    7.1609  -14.5009 C   0  0  0  0  0  0  0  0  0  0  0  0
   11.6763    5.8150  -14.8610 C   0  0  0  0  0  0  0  0  0  0  0  0
   11.4345    5.4930  -16.1852 C   0  0  0  0  0  0  0  0  0  0  0  0
   11.2076    6.4040  -17.1535 N   0  0  0  0  0  0  0  0  0  0  0  0
   11.1821    7.7030  -16.7615 C   0  0  0  0  0  0  0  0  0  0  0  0
   11.4171    8.1529  -15.4608 C   0  0  0  0  0  0  0  0  0  0  0  0
   11.3839    9.5099  -15.0701 N   0  0  0  0  0  0  0  0  0  0  0  0
   12.0104   10.4594  -15.9851 C   0  0  0  0  0  0  0  0  0  0  0  0
   12.4150   11.7014  -15.1838 C   0  0  0  0  0  0  0  0  0  0  0  0
   11.5009   11.9566  -13.9806 C   0  0  0  0  0  0  0  0  0  0  0  0
   10.0880   11.4469  -14.2493 C   0  0  0  0  0  0  0  0  0  0  0  0
   10.0537    9.9188  -14.5642 C   0  0  0  0  0  0  0  0  0  0  0  0
    8.8697    9.6352  -15.3843 N   0  0  0  0  0  0  0  0  0  0  0  0
    7.6260    9.6223  -14.6220 C   0  0  0  0  0  0  0  0  0  0  0  0
    6.4556    9.3457  -15.5705 C   0  0  0  0  0  0  0  0  0  0  0  0
    5.1021    9.2969  -14.8588 C   0  0  0  0  0  0  0  0  0  0  0  0
    4.9639    8.0977  -13.9193 C   0  0  0  0  0  0  0  0  0  0  0  0
    3.6188    8.0302  -13.3724 N   0  0  0  0  0  0  0  0  0  0  0  0
    2.7017    7.2468  -14.0818 C   0  0  0  0  0  0  0  0  0  0  0  0
    2.7978    7.0937  -15.4310 N   0  0  0  0  0  0  0  0  0  0  0  0
    1.8763    6.3431  -16.0735 C   0  0  0  0  0  0  0  0  0  0  0  0
    0.8247    5.6790  -15.5505 N   0  0  0  0  0  0  0  0  0  0  0  0
    0.7777    5.8513  -14.2221 C   0  0  0  0  0  0  0  0  0  0  0  0
   -0.1393    5.3274  -13.3590 N   0  0  0  0  0  0  0  0  0  0  0  0
    0.1912    5.7484  -12.0991 C   0  0  0  0  0  0  0  0  0  0  0  0
    1.2645    6.5122  -12.1004 N   0  0  0  0  0  0  0  0  0  0  0  0
    1.6387    6.5900  -13.4295 C   0  0  0  0  0  0  0  0  0  0  0  0
  1  2  1  0
  2  3  2  0
  3  4  1  0
  4  5  2  0
  5  6  1  0
  6  7  2  0
  7  8  1  0
  8  9  1  0
  9 10  1  0
 10 11  1  0
 11 12  1  0
 12 13  1  0
 13 14  1  0
 14 15  1  0
 15 16  1  0
 16 17  1  0
 17 18  1  0
 18 19  1  0
 19 20  1  0
 20 21  2  0
 21 22  1  0
 22 23  2  0
 23 24  1  0
 24 25  1  0
 25 26  1  0
 26 27  2  0
 27 28  1  0
  7  2  1  0
 13  8  1  0
 28 20  1  0
 28 24  2  0
M  END
$$$$
