
     RDKit          3D

 16 17  0  0  0  0  0  0  0  0999 V2000
  -30.7236   -7.5678   24.0266 N   0  0  0  0  0  0  0  0  0  0  0  0
  -30.1620   -8.6586   24.8118 C   0  0  0  0  0  0  0  0  0  0  0  0
  -31.2584   -9.3462   25.6222 C   0  0  0  0  0  0  0  0  0  0  0  0
  -30.6759  -10.4283   26.5223 C   0  0  0  0  0  0  0  0  0  0  0  0
  -31.7434  -11.3169   27.1305 C   0  0  0  0  0  0  0  0  0  0  0  0
  -31.7921  -12.5165   26.8434 O   0  0  0  0  0  0  0  0  0  0  0  0
  -32.7191  -10.6926   28.1113 C   0  0  0  0  0  0  0  0  0  0  0  0
  -34.0249  -10.3492   27.4733 C   0  0  0  0  0  0  0  0  0  0  0  0
  -34.8918  -11.2351   26.8612 C   0  0  0  0  0  0  0  0  0  0  0  0
  -35.9767  -10.5387   26.4066 N   0  0  0  0  0  0  0  0  0  0  0  0
  -35.8492   -9.2060   26.7178 C   0  0  0  0  0  0  0  0  0  0  0  0
  -36.7114   -8.1346   26.4551 C   0  0  0  0  0  0  0  0  0  0  0  0
  -36.3235   -6.8667   26.8959 C   0  0  0  0  0  0  0  0  0  0  0  0
  -35.1218   -6.6811   27.5736 C   0  0  0  0  0  0  0  0  0  0  0  0
  -34.2721   -7.7639   27.8292 C   0  0  0  0  0  0  0  0  0  0  0  0
  -34.6367   -9.0551   27.3926 C   0  0  0  0  0  0  0  0  0  0  0  0
  1  2  1  0
  2  3  1  0
  3  4  1  0
  4  5  1  0
  5  6  2  0
  5  7  1  0
  7  8  1  0
  8  9  2  0
  9 10  1  0
 10 11  1  0
 11 12  2  0
 12 13  1  0
 13 14  2  0
 14 15  1  0
 15 16  2  0
 16  8  1  0
 16 11  1  0
M  END
$$$$
