
     RDKit          3D

 29 31  0  0  0  0  0  0  0  0999 V2000
   21.2131    4.7105  -13.9553 N   0  0  0  0  0  0  0  0  0  0  0  0
   21.9617    4.8550  -12.8170 C   0  0  0  0  0  0  0  0  0  0  0  0
   21.5940    5.5804  -11.9037 O   0  0  0  0  0  0  0  0  0  0  0  0
   23.2174    4.0609  -12.7706 C   0  0  0  0  0  0  0  0  0  0  0  0
   23.1332    2.6841  -13.0499 C   0  0  0  0  0  0  0  0  0  0  0  0
   24.2803    1.8932  -13.0217 C   0  0  0  0  0  0  0  0  0  0  0  0
   25.4990    2.4778  -12.7079 C   0  0  0  0  0  0  0  0  0  0  0  0
   26.6067    1.7245  -12.6820 F   0  0  0  0  0  0  0  0  0  0  0  0
   25.5943    3.8364  -12.4214 C   0  0  0  0  0  0  0  0  0  0  0  0
   24.4574    4.6631  -12.4588 C   0  0  0  0  0  0  0  0  0  0  0  0
   24.5503    6.0486  -12.1966 N   0  0  0  0  0  0  0  0  0  0  0  0
   24.5351    6.2801  -10.7268 C   0  0  0  0  0  0  0  0  0  0  0  0
   24.7215    7.7565  -10.4257 C   0  0  0  0  0  0  0  0  0  0  0  0
   25.0404    8.1668   -9.3100 O   0  0  0  0  0  0  0  0  0  0  0  0
   24.4495    8.6980  -11.5673 C   0  0  0  0  0  0  0  0  0  0  0  0
   25.2513    8.3017  -12.8070 C   0  0  0  0  0  0  0  0  0  0  0  0
   25.6121    6.7878  -12.9022 C   0  0  0  0  0  0  0  0  0  0  0  0
   25.8595    6.4470  -14.3098 N   0  0  0  0  0  0  0  0  0  0  0  0
   27.1420    6.8937  -14.7923 C   0  0  0  0  0  0  0  0  0  0  0  0
   28.0323    5.8226  -14.4884 N   0  0  0  0  0  0  0  0  0  0  0  0
   29.3912    5.9827  -14.6360 C   0  0  0  0  0  0  0  0  0  0  0  0
   29.9109    7.0628  -14.8939 O   0  0  0  0  0  0  0  0  0  0  0  0
   30.2283    4.7550  -14.5029 C   0  0  0  0  0  0  0  0  0  0  0  0
   29.7854    3.6133  -13.8200 C   0  0  0  0  0  0  0  0  0  0  0  0
   30.6102    2.4873  -13.7259 C   0  0  0  0  0  0  0  0  0  0  0  0
   31.8783    2.5031  -14.3050 C   0  0  0  0  0  0  0  0  0  0  0  0
   32.8881    1.1159  -14.1876 Cl  0  0  0  0  0  0  0  0  0  0  0  0
   32.3339    3.6373  -14.9737 C   0  0  0  0  0  0  0  0  0  0  0  0
   31.5112    4.7632  -15.0694 C   0  0  0  0  0  0  0  0  0  0  0  0
  1  2  1  0
  2  3  2  0
  2  4  1  0
  4  5  2  0
  5  6  1  0
  6  7  2  0
  7  8  1  0
  7  9  1  0
  9 10  2  0
 10 11  1  0
 11 12  1  0
 12 13  1  0
 13 14  2  0
 13 15  1  0
 15 16  1  0
 16 17  1  0
 17 18  1  0
 18 19  1  0
 19 20  1  0
 20 21  1  0
 21 22  2  0
 21 23  1  0
 23 24  2  0
 24 25  1  0
 25 26  2  0
 26 27  1  0
 26 28  1  0
 28 29  2  0
 10  4  1  0
 17 11  1  0
 29 23  1  0
M  END
$$$$
