
     RDKit          3D

 18 19  0  0  0  0  0  0  0  0999 V2000
   24.7400    3.5502  -40.9704 N   0  0  0  0  0  0  0  0  0  0  0  0
   24.2254    4.9091  -40.8168 C   0  0  0  0  0  0  0  0  0  0  0  0
   22.9917    5.1748  -41.6693 C   0  0  0  0  0  0  0  0  0  0  0  0
   21.7718    4.4787  -41.1069 C   0  0  0  0  0  0  0  0  0  0  0  0
   21.3652    3.4199  -41.5898 O   0  0  0  0  0  0  0  0  0  0  0  0
   21.1160    5.0881  -39.8818 C   0  0  0  0  0  0  0  0  0  0  0  0
   19.5947    5.0247  -39.9843 C   0  0  0  0  0  0  0  0  0  0  0  0
   19.0598    5.9860  -41.0306 C   0  0  0  0  0  0  0  0  0  0  0  0
   19.8348    6.7292  -41.6390 O   0  0  0  0  0  0  0  0  0  0  0  0
   17.6171    6.0351  -41.2962 C   0  0  0  0  0  0  0  0  0  0  0  0
   17.0711    6.8695  -42.2592 C   0  0  0  0  0  0  0  0  0  0  0  0
   15.7183    6.6985  -42.2790 N   0  0  0  0  0  0  0  0  0  0  0  0
   15.3470    5.7672  -41.3401 C   0  0  0  0  0  0  0  0  0  0  0  0
   14.0688    5.2920  -41.0188 C   0  0  0  0  0  0  0  0  0  0  0  0
   13.9636    4.3315  -40.0125 C   0  0  0  0  0  0  0  0  0  0  0  0
   15.0957    3.8662  -39.3546 C   0  0  0  0  0  0  0  0  0  0  0  0
   16.3670    4.3523  -39.6879 C   0  0  0  0  0  0  0  0  0  0  0  0
   16.5127    5.3260  -40.7031 C   0  0  0  0  0  0  0  0  0  0  0  0
  1  2  1  0
  2  3  1  0
  3  4  1  0
  4  5  2  0
  4  6  1  0
  6  7  1  0
  7  8  1  0
  8  9  2  0
  8 10  1  0
 10 11  2  0
 11 12  1  0
 12 13  1  0
 13 14  2  0
 14 15  1  0
 15 16  2  0
 16 17  1  0
 17 18  2  0
 18 10  1  0
 18 13  1  0
M  END
$$$$
