
     RDKit          3D

 29 31  0  0  0  0  0  0  0  0999 V2000
    1.7759   26.2190   16.4293 N   0  0  0  0  0  0  0  0  0  0  0  0
    1.0909   24.9922   16.8278 C   0  0  0  0  0  0  0  0  0  0  0  0
   -0.3360   24.8934   16.2837 C   0  0  0  0  0  0  0  0  0  0  0  0
   -1.3394   25.4110   17.2966 C   0  0  0  0  0  0  0  0  0  0  0  0
   -1.8699   24.6466   18.1090 O   0  0  0  0  0  0  0  0  0  0  0  0
   -1.6374   26.8975   17.2944 C   0  0  0  0  0  0  0  0  0  0  0  0
   -3.0482   27.2102   16.8671 C   0  0  0  0  0  0  0  0  0  0  0  0
   -4.1129   27.0185   17.7581 C   0  0  0  0  0  0  0  0  0  0  0  0
   -5.4279   27.3102   17.3772 C   0  0  0  0  0  0  0  0  0  0  0  0
   -5.6959   27.7965   16.0984 C   0  0  0  0  0  0  0  0  0  0  0  0
   -6.9274   28.1320   15.6083 O   0  0  0  0  0  0  0  0  0  0  0  0
   -8.0117   28.0838   16.5229 C   0  0  0  0  0  0  0  0  0  0  0  0
   -9.3054   28.6042   15.8957 C   0  0  0  0  0  0  0  0  0  0  0  0
   -9.3958   28.9095   14.7049 O   0  0  0  0  0  0  0  0  0  0  0  0
  -10.4957   28.7140   16.8687 C   0  0  0  0  0  0  0  0  0  0  0  0
  -11.0088   30.1615   16.9526 C   0  0  0  0  0  0  0  0  0  0  0  0
  -11.9011   30.5636   15.7756 C   0  0  0  0  0  0  0  0  0  0  0  0
  -12.9969   29.5295   15.5296 C   0  0  0  0  0  0  0  0  0  0  0  0
  -12.4043   28.1314   15.3542 C   0  0  0  0  0  0  0  0  0  0  0  0
  -11.6210   27.7890   16.5532 N   0  0  0  0  0  0  0  0  0  0  0  0
  -11.2460   26.4239   16.6464 C   0  0  0  0  0  0  0  0  0  0  0  0
  -10.7553   25.6647   15.5771 C   0  0  0  0  0  0  0  0  0  0  0  0
  -10.3252   24.3798   15.6693 N   0  0  0  0  0  0  0  0  0  0  0  0
  -10.4147   23.8014   16.8829 C   0  0  0  0  0  0  0  0  0  0  0  0
  -10.8997   24.4457   18.0103 C   0  0  0  0  0  0  0  0  0  0  0  0
  -11.2937   25.7801   17.9017 C   0  0  0  0  0  0  0  0  0  0  0  0
  -11.9245   26.4139   18.9929 N   0  0  0  0  0  0  0  0  0  0  0  0
   -4.6396   27.9661   15.2003 C   0  0  0  0  0  0  0  0  0  0  0  0
   -3.3245   27.6753   15.5773 C   0  0  0  0  0  0  0  0  0  0  0  0
  1  2  1  0
  2  3  1  0
  3  4  1  0
  4  5  2  0
  4  6  1  0
  6  7  1  0
  7  8  2  0
  8  9  1  0
  9 10  2  0
 10 11  1  0
 11 12  1  0
 12 13  1  0
 13 14  2  0
 13 15  1  0
 15 16  1  0
 16 17  1  0
 17 18  1  0
 18 19  1  0
 19 20  1  0
 20 21  1  0
 21 22  2  0
 22 23  1  0
 23 24  2  0
 24 25  1  0
 25 26  2  0
 26 27  1  0
 10 28  1  0
 28 29  2  0
 29  7  1  0
 20 15  1  0
 26 21  1  0
M  END
$$$$
