
     RDKit          3D

 27 30  0  0  0  0  0  0  0  0999 V2000
   28.5598   10.9374  -14.7436 N   0  0  0  0  0  0  0  0  0  0  0  0
   28.4488   11.0611  -16.1461 C   0  0  0  0  0  0  0  0  0  0  0  0
   27.3564   11.7563  -16.6702 C   0  0  0  0  0  0  0  0  0  0  0  0
   27.1979   11.8122  -18.0427 C   0  0  0  0  0  0  0  0  0  0  0  0
   28.0249   11.2062  -18.9145 N   0  0  0  0  0  0  0  0  0  0  0  0
   29.0471   10.4938  -18.3785 C   0  0  0  0  0  0  0  0  0  0  0  0
   29.3216   10.3603  -17.0119 C   0  0  0  0  0  0  0  0  0  0  0  0
   30.3895    9.5948  -16.5176 N   0  0  0  0  0  0  0  0  0  0  0  0
   31.6920    9.6490  -17.1935 C   0  0  0  0  0  0  0  0  0  0  0  0
   32.7030   10.5515  -16.4625 C   0  0  0  0  0  0  0  0  0  0  0  0
   32.9118   10.3171  -14.9703 C   0  0  0  0  0  0  0  0  0  0  0  0
   34.1297   10.9826  -14.5138 N   0  0  0  0  0  0  0  0  0  0  0  0
   35.3133   10.3758  -14.7296 C   0  0  0  0  0  0  0  0  0  0  0  0
   35.5461    9.1690  -15.1892 N   0  0  0  0  0  0  0  0  0  0  0  0
   36.9138    9.0448  -15.2207 C   0  0  0  0  0  0  0  0  0  0  0  0
   37.7088    7.9616  -15.6219 C   0  0  0  0  0  0  0  0  0  0  0  0
   39.1026    8.0917  -15.5596 C   0  0  0  0  0  0  0  0  0  0  0  0
   39.6921    9.2752  -15.1069 C   0  0  0  0  0  0  0  0  0  0  0  0
   38.9149   10.3665  -14.7002 C   0  0  0  0  0  0  0  0  0  0  0  0
   37.5294   10.2088  -14.7743 C   0  0  0  0  0  0  0  0  0  0  0  0
   36.4828   11.0382  -14.4660 N   0  0  0  0  0  0  0  0  0  0  0  0
   32.2101    8.2602  -17.5826 C   0  0  0  0  0  0  0  0  0  0  0  0
   32.1049    7.2124  -16.4978 C   0  0  0  0  0  0  0  0  0  0  0  0
   30.6912    7.1536  -15.9899 C   0  0  0  0  0  0  0  0  0  0  0  0
   30.1538    6.0708  -15.7361 O   0  0  0  0  0  0  0  0  0  0  0  0
   30.0167    8.4818  -15.6374 C   0  0  0  0  0  0  0  0  0  0  0  0
   30.3726    8.8260  -14.3067 O   0  0  0  0  0  0  0  0  0  0  0  0
  1  2  1  0
  2  3  2  0
  3  4  1  0
  4  5  2  0
  5  6  1  0
  6  7  2  0
  7  8  1  0
  8  9  1  0
  9 10  1  0
 10 11  1  0
 11 12  1  0
 12 13  1  0
 13 14  2  0
 14 15  1  0
 15 16  2  0
 16 17  1  0
 17 18  2  0
 18 19  1  0
 19 20  2  0
 20 21  1  0
  9 22  1  0
 22 23  1  0
 23 24  1  0
 24 25  2  0
 24 26  1  0
 26 27  1  0
  7  2  1  0
 26  8  1  0
 21 13  1  0
 20 15  1  0
M  END
$$$$
