
     RDKit          3D

 25 27  0  0  0  0  0  0  0  0999 V2000
   -0.8925   -8.7067   -4.2513 N   0  0  0  0  0  0  0  0  0  0  0  0
   -1.7304   -7.7412   -3.5498 C   0  0  0  0  0  0  0  0  0  0  0  0
   -2.4101   -8.3098   -2.2961 C   0  0  0  0  0  0  0  0  0  0  0  0
   -3.3121   -9.5617   -2.4319 C   0  0  0  0  0  0  0  0  0  0  0  0
   -2.4837  -10.8583   -2.4990 C   0  0  0  0  0  0  0  0  0  0  0  0
   -3.3714  -12.1018   -2.4330 C   0  0  0  0  0  0  0  0  0  0  0  0
   -4.6248  -11.9919   -3.3003 C   0  0  0  0  0  0  0  0  0  0  0  0
   -4.5488  -10.8279   -4.2840 C   0  0  0  0  0  0  0  0  0  0  0  0
   -4.3765   -9.4770   -3.5618 C   0  0  0  0  0  0  0  0  0  0  0  0
   -5.6444   -9.1654   -2.9347 O   0  0  0  0  0  0  0  0  0  0  0  0
   -6.2907   -7.9420   -3.3867 N   0  0  0  0  0  0  0  0  0  0  0  0
   -5.5417   -6.7493   -3.0292 C   0  0  0  0  0  0  0  0  0  0  0  0
   -6.3437   -5.5021   -3.3859 C   0  0  0  0  0  0  0  0  0  0  0  0
   -6.6339   -5.4250   -4.8799 C   0  0  0  0  0  0  0  0  0  0  0  0
   -6.6006   -6.7826   -5.5853 C   0  0  0  0  0  0  0  0  0  0  0  0
   -6.8771   -8.0376   -4.7168 C   0  0  0  0  0  0  0  0  0  0  0  0
   -8.2981   -8.4141   -4.6878 N   0  0  0  0  0  0  0  0  0  0  0  0
   -9.2557   -7.4692   -4.1094 C   0  0  0  0  0  0  0  0  0  0  0  0
   -9.4997   -7.6135   -2.6076 C   0  0  0  0  0  0  0  0  0  0  0  0
   -9.9084   -9.0338   -2.2513 C   0  0  0  0  0  0  0  0  0  0  0  0
   -8.8951  -10.0320   -2.7959 C   0  0  0  0  0  0  0  0  0  0  0  0
   -8.5574   -9.8124   -4.2803 C   0  0  0  0  0  0  0  0  0  0  0  0
   -9.6936  -10.3845   -5.1660 C   0  0  0  0  0  0  0  0  0  0  0  0
   -9.3036  -11.3273   -6.0917 N   0  0  0  0  0  0  0  0  0  0  0  0
  -10.8812  -10.0787   -5.0839 O   0  0  0  0  0  0  0  0  0  0  0  0
  1  2  1  0
  2  3  1  0
  3  4  1  0
  4  5  1  0
  5  6  1  0
  6  7  1  0
  7  8  1  0
  8  9  1  0
  9 10  1  0
 10 11  1  0
 11 12  1  0
 12 13  1  0
 13 14  1  0
 14 15  1  0
 15 16  1  0
 16 17  1  0
 17 18  1  0
 18 19  1  0
 19 20  1  0
 20 21  1  0
 21 22  1  0
 22 23  1  0
 23 24  1  0
 23 25  2  0
  9  4  1  0
 16 11  1  0
 22 17  1  0
M  END
$$$$
