
     RDKit          3D

 16 17  0  0  0  0  0  0  0  0999 V2000
  -11.0297   -8.0338    0.8927 N   0  0  0  0  0  0  0  0  0  0  0  0
  -11.9339   -8.1657    2.0350 C   0  0  0  0  0  0  0  0  0  0  0  0
  -13.3467   -8.4842    1.5620 C   0  0  0  0  0  0  0  0  0  0  0  0
  -14.3086   -8.6385    2.7262 C   0  0  0  0  0  0  0  0  0  0  0  0
  -13.9830   -8.3778    3.8837 O   0  0  0  0  0  0  0  0  0  0  0  0
  -15.7047   -9.1080    2.3644 C   0  0  0  0  0  0  0  0  0  0  0  0
  -16.5982   -9.2537    3.5923 C   0  0  0  0  0  0  0  0  0  0  0  0
  -17.9730   -9.7170    3.2261 C   0  0  0  0  0  0  0  0  0  0  0  0
  -18.4220  -11.0233    3.2216 C   0  0  0  0  0  0  0  0  0  0  0  0
  -19.7317  -11.0269    2.8243 N   0  0  0  0  0  0  0  0  0  0  0  0
  -20.1534   -9.7449    2.5613 C   0  0  0  0  0  0  0  0  0  0  0  0
  -21.4001   -9.2761    2.1296 C   0  0  0  0  0  0  0  0  0  0  0  0
  -21.5461   -7.8980    1.9460 C   0  0  0  0  0  0  0  0  0  0  0  0
  -20.4868   -7.0264    2.1862 C   0  0  0  0  0  0  0  0  0  0  0  0
  -19.2470   -7.5125    2.6174 C   0  0  0  0  0  0  0  0  0  0  0  0
  -19.0723   -8.8987    2.8091 C   0  0  0  0  0  0  0  0  0  0  0  0
  1  2  1  0
  2  3  1  0
  3  4  1  0
  4  5  2  0
  4  6  1  0
  6  7  1  0
  7  8  1  0
  8  9  2  0
  9 10  1  0
 10 11  1  0
 11 12  2  0
 12 13  1  0
 13 14  2  0
 14 15  1  0
 15 16  2  0
 16  8  1  0
 16 11  1  0
M  END
$$$$
