
     RDKit          3D

 19 20  0  0  0  0  0  0  0  0999 V2000
  -57.7734  -16.0847    5.7732 C   0  0  0  0  0  0  0  0  0  0  0  0
  -58.0302  -16.9973    4.6925 N   0  0  0  0  0  0  0  0  0  0  0  0
  -56.9881  -17.5873    4.0090 C   0  0  0  0  0  0  0  0  0  0  0  0
  -55.8096  -17.2754    4.1558 O   0  0  0  0  0  0  0  0  0  0  0  0
  -57.4393  -18.6580    3.0364 C   0  0  0  0  0  0  0  0  0  0  0  0
  -57.5963  -20.0149    3.6865 C   0  0  0  0  0  0  0  0  0  0  0  0
  -56.5507  -20.9445    3.5400 C   0  0  0  0  0  0  0  0  0  0  0  0
  -56.6356  -22.2208    4.0980 C   0  0  0  0  0  0  0  0  0  0  0  0
  -57.7724  -22.5904    4.8065 C   0  0  0  0  0  0  0  0  0  0  0  0
  -57.9996  -23.8101    5.3846 O   0  0  0  0  0  0  0  0  0  0  0  0
  -56.9621  -24.7763    5.2723 C   0  0  0  0  0  0  0  0  0  0  0  0
  -58.8099  -21.6648    4.9683 C   0  0  0  0  0  0  0  0  0  0  0  0
  -58.7370  -20.3610    4.4447 C   0  0  0  0  0  0  0  0  0  0  0  0
  -59.7841  -19.4203    4.6141 N   0  0  0  0  0  0  0  0  0  0  0  0
  -60.8233  -19.6032    3.5864 C   0  0  0  0  0  0  0  0  0  0  0  0
  -61.6570  -18.3217    3.5010 C   0  0  0  0  0  0  0  0  0  0  0  0
  -61.8723  -17.6504    4.8607 C   0  0  0  0  0  0  0  0  0  0  0  0
  -61.6995  -18.6359    6.0088 C   0  0  0  0  0  0  0  0  0  0  0  0
  -60.3249  -19.3192    5.9923 C   0  0  0  0  0  0  0  0  0  0  0  0
  1  2  1  0
  2  3  1  0
  3  4  2  0
  3  5  1  0
  5  6  1  0
  6  7  2  0
  7  8  1  0
  8  9  2  0
  9 10  1  0
 10 11  1  0
  9 12  1  0
 12 13  2  0
 13 14  1  0
 14 15  1  0
 15 16  1  0
 16 17  1  0
 17 18  1  0
 18 19  1  0
 13  6  1  0
 19 14  1  0
M  END
$$$$
