
     RDKit          3D

 28 31  0  0  0  0  0  0  0  0999 V2000
    6.2587    9.5425   -4.7319 N   0  0  0  0  0  0  0  0  0  0  0  0
    6.0888    9.5924   -3.2744 C   0  0  0  0  0  0  0  0  0  0  0  0
    6.1836   11.0027   -2.7439 C   0  0  0  0  0  0  0  0  0  0  0  0
    5.3372   11.9897   -3.2765 C   0  0  0  0  0  0  0  0  0  0  0  0
    5.3979   13.2791   -2.7758 C   0  0  0  0  0  0  0  0  0  0  0  0
    6.2277   13.6583   -1.7857 N   0  0  0  0  0  0  0  0  0  0  0  0
    7.0319   12.6928   -1.2806 C   0  0  0  0  0  0  0  0  0  0  0  0
    7.0649   11.3571   -1.7071 C   0  0  0  0  0  0  0  0  0  0  0  0
    7.9291   10.3976   -1.1487 N   0  0  0  0  0  0  0  0  0  0  0  0
    7.5338   10.0492    0.2333 C   0  0  0  0  0  0  0  0  0  0  0  0
    8.6947    9.4653    1.0400 C   0  0  0  0  0  0  0  0  0  0  0  0
    9.5599    8.5554    0.1823 C   0  0  0  0  0  0  0  0  0  0  0  0
   10.0735    9.2692   -1.0723 C   0  0  0  0  0  0  0  0  0  0  0  0
    9.3714   10.6245   -1.3573 C   0  0  0  0  0  0  0  0  0  0  0  0
    9.8493   11.0005   -2.6928 N   0  0  0  0  0  0  0  0  0  0  0  0
   10.2444   12.4099   -2.8059 C   0  0  0  0  0  0  0  0  0  0  0  0
   11.7403   12.6669   -2.5130 C   0  0  0  0  0  0  0  0  0  0  0  0
   12.0764   12.5047   -1.0928 N   0  0  0  0  0  0  0  0  0  0  0  0
   13.4908   12.7849   -0.8226 C   0  0  0  0  0  0  0  0  0  0  0  0
   14.3693   11.6487   -1.2406 C   0  0  0  0  0  0  0  0  0  0  0  0
   14.2003   10.3746   -0.9415 N   0  0  0  0  0  0  0  0  0  0  0  0
   15.2331    9.7112   -1.5571 C   0  0  0  0  0  0  0  0  0  0  0  0
   15.5417    8.3429   -1.5694 C   0  0  0  0  0  0  0  0  0  0  0  0
   16.6674    7.9145   -2.2852 C   0  0  0  0  0  0  0  0  0  0  0  0
   17.4680    8.8295   -2.9746 C   0  0  0  0  0  0  0  0  0  0  0  0
   17.1747   10.1989   -2.9743 C   0  0  0  0  0  0  0  0  0  0  0  0
   16.0491   10.5979   -2.2506 C   0  0  0  0  0  0  0  0  0  0  0  0
   15.4767   11.8242   -2.0331 N   0  0  0  0  0  0  0  0  0  0  0  0
  1  2  1  0
  2  3  1  0
  3  4  2  0
  4  5  1  0
  5  6  2  0
  6  7  1  0
  7  8  2  0
  8  9  1  0
  9 10  1  0
 10 11  1  0
 11 12  1  0
 12 13  1  0
 13 14  1  0
 14 15  1  0
 15 16  1  0
 16 17  1  0
 17 18  1  0
 18 19  1  0
 19 20  1  0
 20 21  2  0
 21 22  1  0
 22 23  2  0
 23 24  1  0
 24 25  2  0
 25 26  1  0
 26 27  2  0
 27 28  1  0
  8  3  1  0
 14  9  1  0
 28 20  1  0
 27 22  1  0
M  END
$$$$
