
     RDKit          3D

 21 22  0  0  0  0  0  0  0  0999 V2000
    1.6228    6.3754  -11.9112 N   0  0  0  0  0  0  0  0  0  0  0  0
    0.3672    6.1358  -12.6109 C   0  0  0  0  0  0  0  0  0  0  0  0
   -0.3387    4.9115  -12.0301 C   0  0  0  0  0  0  0  0  0  0  0  0
   -1.6505    4.6283  -12.7651 C   0  0  0  0  0  0  0  0  0  0  0  0
   -2.3673    3.4123  -12.1765 C   0  0  0  0  0  0  0  0  0  0  0  0
   -3.6692    3.1260  -12.9211 C   0  0  0  0  0  0  0  0  0  0  0  0
   -4.5500    1.7566  -12.1924 S   0  0  0  0  0  0  0  0  0  0  0  0
   -5.1916    2.1900  -10.9648 O   0  0  0  0  0  0  0  0  0  0  0  0
   -3.6225    0.6359  -12.1642 O   0  0  0  0  0  0  0  0  0  0  0  0
   -5.8379    1.3100  -13.3374 C   0  0  0  0  0  0  0  0  0  0  0  0
   -5.9445   -0.0526  -13.6557 C   0  0  0  0  0  0  0  0  0  0  0  0
   -6.8802   -0.4390  -14.5915 C   0  0  0  0  0  0  0  0  0  0  0  0
   -7.6973    0.4268  -15.2140 N   0  0  0  0  0  0  0  0  0  0  0  0
   -7.5767    1.7340  -14.8718 C   0  0  0  0  0  0  0  0  0  0  0  0
   -6.6697    2.2627  -13.9437 C   0  0  0  0  0  0  0  0  0  0  0  0
   -6.6382    3.6252  -13.6210 N   0  0  0  0  0  0  0  0  0  0  0  0
   -7.3340    3.9493  -12.3506 C   0  0  0  0  0  0  0  0  0  0  0  0
   -8.4059    5.0174  -12.5542 C   0  0  0  0  0  0  0  0  0  0  0  0
   -7.8262    6.2924  -13.1678 C   0  0  0  0  0  0  0  0  0  0  0  0
   -6.7082    6.0076  -14.1728 C   0  0  0  0  0  0  0  0  0  0  0  0
   -6.8065    4.5880  -14.7240 C   0  0  0  0  0  0  0  0  0  0  0  0
  1  2  1  0
  2  3  1  0
  3  4  1  0
  4  5  1  0
  5  6  1  0
  6  7  1  0
  7  8  2  0
  7  9  2  0
  7 10  1  0
 10 11  2  0
 11 12  1  0
 12 13  2  0
 13 14  1  0
 14 15  2  0
 15 16  1  0
 16 17  1  0
 17 18  1  0
 18 19  1  0
 19 20  1  0
 20 21  1  0
 15 10  1  0
 21 16  1  0
M  END
$$$$
