
     RDKit          3D

 28 31  0  0  0  0  0  0  0  0999 V2000
  -55.2207  -15.7052   19.8890 N   0  0  0  0  0  0  0  0  0  0  0  0
  -54.0013  -15.4500   19.1234 C   0  0  0  0  0  0  0  0  0  0  0  0
  -52.7872  -16.0688   19.7769 C   0  0  0  0  0  0  0  0  0  0  0  0
  -52.5535  -17.4478   19.5960 C   0  0  0  0  0  0  0  0  0  0  0  0
  -51.4503  -18.0730   20.1759 C   0  0  0  0  0  0  0  0  0  0  0  0
  -50.5824  -17.3219   20.9538 C   0  0  0  0  0  0  0  0  0  0  0  0
  -49.4727  -17.8808   21.5215 O   0  0  0  0  0  0  0  0  0  0  0  0
  -50.8029  -15.9648   21.1629 C   0  0  0  0  0  0  0  0  0  0  0  0
  -51.8907  -15.3097   20.5623 C   0  0  0  0  0  0  0  0  0  0  0  0
  -52.1372  -13.9343   20.7727 N   0  0  0  0  0  0  0  0  0  0  0  0
  -52.7713  -13.7836   22.1144 C   0  0  0  0  0  0  0  0  0  0  0  0
  -52.9840  -12.3182   22.4458 C   0  0  0  0  0  0  0  0  0  0  0  0
  -53.2363  -11.9284   23.5863 O   0  0  0  0  0  0  0  0  0  0  0  0
  -52.9314  -11.3663   21.2835 C   0  0  0  0  0  0  0  0  0  0  0  0
  -51.6460  -11.5494   20.4840 C   0  0  0  0  0  0  0  0  0  0  0  0
  -51.0262  -12.9739   20.5325 C   0  0  0  0  0  0  0  0  0  0  0  0
  -50.2560  -13.1844   19.1841 C   0  0  0  0  0  0  0  0  0  0  0  0
  -49.2219  -14.2304   19.1481 N   0  0  0  0  0  0  0  0  0  0  0  0
  -48.0155  -13.8542   19.8877 C   0  0  0  0  0  0  0  0  0  0  0  0
  -46.9767  -14.9197   19.7603 C   0  0  0  0  0  0  0  0  0  0  0  0
  -45.7772  -14.8000   19.2245 N   0  0  0  0  0  0  0  0  0  0  0  0
  -45.1966  -16.0395   19.3441 C   0  0  0  0  0  0  0  0  0  0  0  0
  -43.9256  -16.4772   18.9446 C   0  0  0  0  0  0  0  0  0  0  0  0
  -43.5677  -17.8104   19.1842 C   0  0  0  0  0  0  0  0  0  0  0  0
  -44.4571  -18.6891   19.8083 C   0  0  0  0  0  0  0  0  0  0  0  0
  -45.7300  -18.2702   20.2130 C   0  0  0  0  0  0  0  0  0  0  0  0
  -46.0594  -16.9368   19.9621 C   0  0  0  0  0  0  0  0  0  0  0  0
  -47.1884  -16.2009   20.2123 N   0  0  0  0  0  0  0  0  0  0  0  0
  1  2  1  0
  2  3  1  0
  3  4  2  0
  4  5  1  0
  5  6  2  0
  6  7  1  0
  6  8  1  0
  8  9  2  0
  9 10  1  0
 10 11  1  0
 11 12  1  0
 12 13  2  0
 12 14  1  0
 14 15  1  0
 15 16  1  0
 16 17  1  0
 17 18  1  0
 18 19  1  0
 19 20  1  0
 20 21  2  0
 21 22  1  0
 22 23  2  0
 23 24  1  0
 24 25  2  0
 25 26  1  0
 26 27  2  0
 27 28  1  0
  9  3  1  0
 16 10  1  0
 28 20  1  0
 27 22  1  0
M  END
$$$$
