
     RDKit          3D

 27 30  0  0  0  0  0  0  0  0999 V2000
  -31.6305    7.0727   29.0541 N   0  0  0  0  0  0  0  0  0  0  0  0
  -32.7337    6.1819   29.0732 C   0  0  0  0  0  0  0  0  0  0  0  0
  -33.9917    6.7109   29.3783 C   0  0  0  0  0  0  0  0  0  0  0  0
  -35.0809    5.8599   29.3956 C   0  0  0  0  0  0  0  0  0  0  0  0
  -34.9930    4.5384   29.1723 N   0  0  0  0  0  0  0  0  0  0  0  0
  -33.7492    4.0458   28.9340 C   0  0  0  0  0  0  0  0  0  0  0  0
  -32.5581    4.7872   28.9124 C   0  0  0  0  0  0  0  0  0  0  0  0
  -31.2635    4.2282   28.7356 N   0  0  0  0  0  0  0  0  0  0  0  0
  -31.1802    2.9706   27.9589 C   0  0  0  0  0  0  0  0  0  0  0  0
  -31.4425    1.7369   28.8158 C   0  0  0  0  0  0  0  0  0  0  0  0
  -31.7381    0.6505   28.3130 O   0  0  0  0  0  0  0  0  0  0  0  0
  -31.3342    1.9094   30.3118 C   0  0  0  0  0  0  0  0  0  0  0  0
  -30.2229    2.8998   30.6193 C   0  0  0  0  0  0  0  0  0  0  0  0
  -30.3881    4.2841   29.9470 C   0  0  0  0  0  0  0  0  0  0  0  0
  -28.9782    4.8360   29.5635 C   0  0  0  0  0  0  0  0  0  0  0  0
  -28.1370    5.0424   30.7482 N   0  0  0  0  0  0  0  0  0  0  0  0
  -26.6981    4.8997   30.4815 C   0  0  0  0  0  0  0  0  0  0  0  0
  -26.1009    5.9165   29.4947 C   0  0  0  0  0  0  0  0  0  0  0  0
  -24.6276    5.7145   29.3660 C   0  0  0  0  0  0  0  0  0  0  0  0
  -23.7304    5.8685   30.3179 N   0  0  0  0  0  0  0  0  0  0  0  0
  -22.5179    5.5478   29.7417 C   0  0  0  0  0  0  0  0  0  0  0  0
  -21.2315    5.5354   30.3000 C   0  0  0  0  0  0  0  0  0  0  0  0
  -20.1424    5.1718   29.4862 C   0  0  0  0  0  0  0  0  0  0  0  0
  -20.3340    4.8278   28.1457 C   0  0  0  0  0  0  0  0  0  0  0  0
  -21.6139    4.8300   27.5751 C   0  0  0  0  0  0  0  0  0  0  0  0
  -22.6788    5.1954   28.4093 C   0  0  0  0  0  0  0  0  0  0  0  0
  -24.0318    5.3036   28.1952 N   0  0  0  0  0  0  0  0  0  0  0  0
  1  2  1  0
  2  3  2  0
  3  4  1  0
  4  5  2  0
  5  6  1  0
  6  7  2  0
  7  8  1  0
  8  9  1  0
  9 10  1  0
 10 11  2  0
 10 12  1  0
 12 13  1  0
 13 14  1  0
 14 15  1  0
 15 16  1  0
 16 17  1  0
 17 18  1  0
 18 19  1  0
 19 20  2  0
 20 21  1  0
 21 22  2  0
 22 23  1  0
 23 24  2  0
 24 25  1  0
 25 26  2  0
 26 27  1  0
  7  2  1  0
 14  8  1  0
 27 19  1  0
 26 21  1  0
M  END
$$$$
