
     RDKit          3D

 29 32  0  0  0  0  0  0  0  0999 V2000
    9.5671    0.7726   -9.3766 N   0  0  0  0  0  0  0  0  0  0  0  0
   10.2756    2.2092   -8.8285 S   0  0  0  0  0  0  0  0  0  0  0  0
   10.0502    3.1279   -9.9222 O   0  0  0  0  0  0  0  0  0  0  0  0
   11.5898    1.7988   -8.3848 O   0  0  0  0  0  0  0  0  0  0  0  0
    9.3034    2.6763   -7.4318 C   0  0  0  0  0  0  0  0  0  0  0  0
    8.3396    1.7894   -6.9374 C   0  0  0  0  0  0  0  0  0  0  0  0
    7.6066    2.1740   -5.8323 C   0  0  0  0  0  0  0  0  0  0  0  0
    7.7707    3.3541   -5.2074 N   0  0  0  0  0  0  0  0  0  0  0  0
    8.7145    4.1863   -5.7147 C   0  0  0  0  0  0  0  0  0  0  0  0
    9.5211    3.9210   -6.8238 C   0  0  0  0  0  0  0  0  0  0  0  0
   10.4672    4.8259   -7.2972 N   0  0  0  0  0  0  0  0  0  0  0  0
    9.9623    5.9000   -8.1632 C   0  0  0  0  0  0  0  0  0  0  0  0
    9.7437    7.1934   -7.3850 C   0  0  0  0  0  0  0  0  0  0  0  0
   10.9927    7.5909   -6.6050 C   0  0  0  0  0  0  0  0  0  0  0  0
   11.4478    6.4542   -5.6920 C   0  0  0  0  0  0  0  0  0  0  0  0
   11.6356    5.1198   -6.4357 C   0  0  0  0  0  0  0  0  0  0  0  0
   12.9057    5.0848   -7.3160 C   0  0  0  0  0  0  0  0  0  0  0  0
   14.2284    5.0846   -6.5413 C   0  0  0  0  0  0  0  0  0  0  0  0
   14.3201    3.9156   -5.6627 N   0  0  0  0  0  0  0  0  0  0  0  0
   15.6033    3.8602   -4.9550 C   0  0  0  0  0  0  0  0  0  0  0  0
   16.7375    3.4393   -5.8327 C   0  0  0  0  0  0  0  0  0  0  0  0
   17.6302    4.2204   -6.4094 N   0  0  0  0  0  0  0  0  0  0  0  0
   18.4590    3.3800   -7.1120 C   0  0  0  0  0  0  0  0  0  0  0  0
   19.5754    3.6780   -7.9064 C   0  0  0  0  0  0  0  0  0  0  0  0
   20.2611    2.6237   -8.5241 C   0  0  0  0  0  0  0  0  0  0  0  0
   19.8431    1.3010   -8.3544 C   0  0  0  0  0  0  0  0  0  0  0  0
   18.7305    0.9847   -7.5655 C   0  0  0  0  0  0  0  0  0  0  0  0
   18.0668    2.0550   -6.9615 C   0  0  0  0  0  0  0  0  0  0  0  0
   16.9690    2.1203   -6.1437 N   0  0  0  0  0  0  0  0  0  0  0  0
  1  2  1  0
  2  3  2  0
  2  4  2  0
  2  5  1  0
  5  6  2  0
  6  7  1  0
  7  8  2  0
  8  9  1  0
  9 10  2  0
 10 11  1  0
 11 12  1  0
 12 13  1  0
 13 14  1  0
 14 15  1  0
 15 16  1  0
 16 17  1  0
 17 18  1  0
 18 19  1  0
 19 20  1  0
 20 21  1  0
 21 22  2  0
 22 23  1  0
 23 24  2  0
 24 25  1  0
 25 26  2  0
 26 27  1  0
 27 28  2  0
 28 29  1  0
 10  5  1  0
 16 11  1  0
 29 21  1  0
 28 23  1  0
M  END
$$$$
