
     RDKit          3D

 32 35  0  0  0  0  0  0  0  0999 V2000
  -33.6680  -31.2490   68.0068 N   0  0  0  0  0  0  0  0  0  0  0  0
  -34.6380  -32.6075   68.2830 S   0  0  0  0  0  0  0  0  0  0  0  0
  -34.0983  -33.1829   69.4945 O   0  0  0  0  0  0  0  0  0  0  0  0
  -35.9832  -32.0907   68.1798 O   0  0  0  0  0  0  0  0  0  0  0  0
  -34.3073  -33.6771   66.9201 C   0  0  0  0  0  0  0  0  0  0  0  0
  -33.3733  -33.2931   65.9520 C   0  0  0  0  0  0  0  0  0  0  0  0
  -33.1776  -34.1278   64.8688 C   0  0  0  0  0  0  0  0  0  0  0  0
  -33.8359  -35.2876   64.6979 N   0  0  0  0  0  0  0  0  0  0  0  0
  -34.7375  -35.6259   65.6527 C   0  0  0  0  0  0  0  0  0  0  0  0
  -35.0250  -34.8773   66.7984 C   0  0  0  0  0  0  0  0  0  0  0  0
  -35.9092  -35.3211   67.7947 N   0  0  0  0  0  0  0  0  0  0  0  0
  -35.2496  -36.1855   68.7950 C   0  0  0  0  0  0  0  0  0  0  0  0
  -35.6250  -37.6484   68.5877 C   0  0  0  0  0  0  0  0  0  0  0  0
  -37.1337  -37.8685   68.6839 C   0  0  0  0  0  0  0  0  0  0  0  0
  -37.9350  -36.5910   68.4401 C   0  0  0  0  0  0  0  0  0  0  0  0
  -37.2828  -35.7032   67.3580 C   0  0  0  0  0  0  0  0  0  0  0  0
  -38.1328  -34.4254   67.1427 C   0  0  0  0  0  0  0  0  0  0  0  0
  -39.4939  -34.7007   66.7287 N   0  0  0  0  0  0  0  0  0  0  0  0
  -39.8872  -34.7909   65.4164 C   0  0  0  0  0  0  0  0  0  0  0  0
  -39.0961  -34.7017   64.4812 O   0  0  0  0  0  0  0  0  0  0  0  0
  -41.3468  -35.0167   65.1610 C   0  0  0  0  0  0  0  0  0  0  0  0
  -41.6936  -35.3049   63.8300 C   0  0  0  0  0  0  0  0  0  0  0  0
  -43.0198  -35.5252   63.5161 C   0  0  0  0  0  0  0  0  0  0  0  0
  -44.0125  -35.4795   64.4213 N   0  0  0  0  0  0  0  0  0  0  0  0
  -43.6565  -35.2096   65.6985 C   0  0  0  0  0  0  0  0  0  0  0  0
  -42.3515  -34.9755   66.1511 C   0  0  0  0  0  0  0  0  0  0  0  0
  -42.0749  -34.6617   67.5043 N   0  0  0  0  0  0  0  0  0  0  0  0
  -42.6030  -35.6404   68.4748 C   0  0  0  0  0  0  0  0  0  0  0  0
  -42.2298  -35.1916   69.8842 C   0  0  0  0  0  0  0  0  0  0  0  0
  -42.8127  -33.8158   70.2187 C   0  0  0  0  0  0  0  0  0  0  0  0
  -43.2964  -33.0608   68.9820 C   0  0  0  0  0  0  0  0  0  0  0  0
  -42.3404  -33.2308   67.8048 C   0  0  0  0  0  0  0  0  0  0  0  0
  1  2  1  0
  2  3  2  0
  2  4  2  0
  2  5  1  0
  5  6  2  0
  6  7  1  0
  7  8  2  0
  8  9  1  0
  9 10  2  0
 10 11  1  0
 11 12  1  0
 12 13  1  0
 13 14  1  0
 14 15  1  0
 15 16  1  0
 16 17  1  0
 17 18  1  0
 18 19  1  0
 19 20  2  0
 19 21  1  0
 21 22  2  0
 22 23  1  0
 23 24  2  0
 24 25  1  0
 25 26  2  0
 26 27  1  0
 27 28  1  0
 28 29  1  0
 29 30  1  0
 30 31  1  0
 31 32  1  0
 10  5  1  0
 16 11  1  0
 26 21  1  0
 32 27  1  0
M  END
$$$$
