
     RDKit          3D

 33 36  0  0  0  0  0  0  0  0999 V2000
   24.3593    2.1375  -36.0742 N   0  0  0  0  0  0  0  0  0  0  0  0
   25.1409    2.4876  -34.8895 C   0  0  0  0  0  0  0  0  0  0  0  0
   24.7216    3.8235  -34.3158 C   0  0  0  0  0  0  0  0  0  0  0  0
   25.2573    4.9914  -34.8975 C   0  0  0  0  0  0  0  0  0  0  0  0
   24.9317    6.2521  -34.4051 C   0  0  0  0  0  0  0  0  0  0  0  0
   24.0547    6.3586  -33.3366 C   0  0  0  0  0  0  0  0  0  0  0  0
   23.7258    7.6120  -32.9075 O   0  0  0  0  0  0  0  0  0  0  0  0
   23.5217    5.2196  -32.7364 C   0  0  0  0  0  0  0  0  0  0  0  0
   23.8316    3.9335  -33.2186 C   0  0  0  0  0  0  0  0  0  0  0  0
   23.2741    2.7857  -32.6445 N   0  0  0  0  0  0  0  0  0  0  0  0
   23.1936    2.7254  -31.1762 C   0  0  0  0  0  0  0  0  0  0  0  0
   22.9743    1.2800  -30.7466 C   0  0  0  0  0  0  0  0  0  0  0  0
   23.5501    0.7831  -29.7784 O   0  0  0  0  0  0  0  0  0  0  0  0
   21.9131    0.5099  -31.5022 C   0  0  0  0  0  0  0  0  0  0  0  0
   22.0512    0.7338  -33.0057 C   0  0  0  0  0  0  0  0  0  0  0  0
   22.1183    2.2280  -33.3596 C   0  0  0  0  0  0  0  0  0  0  0  0
   20.9009    2.8254  -32.9100 O   0  0  0  0  0  0  0  0  0  0  0  0
   20.4315    3.8028  -33.8180 C   0  0  0  0  0  0  0  0  0  0  0  0
   19.2812    4.3951  -33.2081 N   0  0  0  0  0  0  0  0  0  0  0  0
   18.7668    5.5784  -33.6851 C   0  0  0  0  0  0  0  0  0  0  0  0
   19.3178    6.2725  -34.5321 O   0  0  0  0  0  0  0  0  0  0  0  0
   17.4930    6.0315  -33.0689 C   0  0  0  0  0  0  0  0  0  0  0  0
   17.4393    7.3971  -32.7526 C   0  0  0  0  0  0  0  0  0  0  0  0
   16.3203    7.8803  -32.1144 C   0  0  0  0  0  0  0  0  0  0  0  0
   15.2800    7.1020  -31.7703 N   0  0  0  0  0  0  0  0  0  0  0  0
   15.3579    5.7866  -32.1027 C   0  0  0  0  0  0  0  0  0  0  0  0
   16.4189    5.1669  -32.7696 C   0  0  0  0  0  0  0  0  0  0  0  0
   16.3936    3.8120  -33.1673 N   0  0  0  0  0  0  0  0  0  0  0  0
   16.3528    3.6635  -34.6444 C   0  0  0  0  0  0  0  0  0  0  0  0
   15.6735    2.3627  -35.0702 C   0  0  0  0  0  0  0  0  0  0  0  0
   14.2609    2.2984  -34.5089 C   0  0  0  0  0  0  0  0  0  0  0  0
   14.2100    2.6039  -33.0111 C   0  0  0  0  0  0  0  0  0  0  0  0
   15.5838    2.8554  -32.3911 C   0  0  0  0  0  0  0  0  0  0  0  0
  1  2  1  0
  2  3  1  0
  3  4  2  0
  4  5  1  0
  5  6  2  0
  6  7  1  0
  6  8  1  0
  8  9  2  0
  9 10  1  0
 10 11  1  0
 11 12  1  0
 12 13  2  0
 12 14  1  0
 14 15  1  0
 15 16  1  0
 16 17  1  0
 17 18  1  0
 18 19  1  0
 19 20  1  0
 20 21  2  0
 20 22  1  0
 22 23  2  0
 23 24  1  0
 24 25  2  0
 25 26  1  0
 26 27  2  0
 27 28  1  0
 28 29  1  0
 29 30  1  0
 30 31  1  0
 31 32  1  0
 32 33  1  0
  9  3  1  0
 16 10  1  0
 27 22  1  0
 33 28  1  0
M  END
$$$$
