
     RDKit          3D

 28 31  0  0  0  0  0  0  0  0999 V2000
   14.9818   -9.4664  -20.4240 N   0  0  0  0  0  0  0  0  0  0  0  0
   16.2012   -9.2112  -21.1896 C   0  0  0  0  0  0  0  0  0  0  0  0
   17.4153   -9.8300  -20.5360 C   0  0  0  0  0  0  0  0  0  0  0  0
   17.6490  -11.2089  -20.7170 C   0  0  0  0  0  0  0  0  0  0  0  0
   18.7522  -11.8342  -20.1371 C   0  0  0  0  0  0  0  0  0  0  0  0
   19.6201  -11.0831  -19.3592 C   0  0  0  0  0  0  0  0  0  0  0  0
   20.7298  -11.6419  -18.7914 O   0  0  0  0  0  0  0  0  0  0  0  0
   19.3996   -9.7260  -19.1501 C   0  0  0  0  0  0  0  0  0  0  0  0
   18.3117   -9.0708  -19.7506 C   0  0  0  0  0  0  0  0  0  0  0  0
   18.0652   -7.6955  -19.5403 N   0  0  0  0  0  0  0  0  0  0  0  0
   17.4312   -7.5448  -18.1986 C   0  0  0  0  0  0  0  0  0  0  0  0
   17.2185   -6.0794  -17.8672 C   0  0  0  0  0  0  0  0  0  0  0  0
   16.9662   -5.6895  -16.7267 O   0  0  0  0  0  0  0  0  0  0  0  0
   17.2711   -5.1275  -19.0295 C   0  0  0  0  0  0  0  0  0  0  0  0
   18.5565   -5.3106  -19.8289 C   0  0  0  0  0  0  0  0  0  0  0  0
   19.1762   -6.7351  -19.7805 C   0  0  0  0  0  0  0  0  0  0  0  0
   19.9465   -6.9455  -21.1289 C   0  0  0  0  0  0  0  0  0  0  0  0
   20.9806   -7.9916  -21.1649 N   0  0  0  0  0  0  0  0  0  0  0  0
   22.1870   -7.6154  -20.4252 C   0  0  0  0  0  0  0  0  0  0  0  0
   23.2258   -8.6809  -20.5527 C   0  0  0  0  0  0  0  0  0  0  0  0
   24.4252   -8.5612  -21.0884 N   0  0  0  0  0  0  0  0  0  0  0  0
   25.0059   -9.8007  -20.9689 C   0  0  0  0  0  0  0  0  0  0  0  0
   26.2769  -10.2384  -21.3684 C   0  0  0  0  0  0  0  0  0  0  0  0
   26.6348  -11.5716  -21.1288 C   0  0  0  0  0  0  0  0  0  0  0  0
   25.7454  -12.4503  -20.5046 C   0  0  0  0  0  0  0  0  0  0  0  0
   24.4724  -12.0314  -20.0999 C   0  0  0  0  0  0  0  0  0  0  0  0
   24.1431  -10.6980  -20.3508 C   0  0  0  0  0  0  0  0  0  0  0  0
   23.0141   -9.9621  -20.1007 N   0  0  0  0  0  0  0  0  0  0  0  0
  1  2  1  0
  2  3  1  0
  3  4  2  0
  4  5  1  0
  5  6  2  0
  6  7  1  0
  6  8  1  0
  8  9  2  0
  9 10  1  0
 10 11  1  0
 11 12  1  0
 12 13  2  0
 12 14  1  0
 14 15  1  0
 15 16  1  0
 16 17  1  0
 17 18  1  0
 18 19  1  0
 19 20  1  0
 20 21  2  0
 21 22  1  0
 22 23  2  0
 23 24  1  0
 24 25  2  0
 25 26  1  0
 26 27  2  0
 27 28  1  0
  9  3  1  0
 16 10  1  0
 28 20  1  0
 27 22  1  0
M  END
$$$$
