
     RDKit          3D

 19 20  0  0  0  0  0  0  0  0999 V2000
   13.3963   10.9621    6.9477 N   0  0  0  0  0  0  0  0  0  0  0  0
   13.9033   10.4444    5.6822 C   0  0  0  0  0  0  0  0  0  0  0  0
   13.9334   11.5234    4.6100 C   0  0  0  0  0  0  0  0  0  0  0  0
   12.5413   11.9038    4.1498 C   0  0  0  0  0  0  0  0  0  0  0  0
   11.7845   11.0836    3.6261 O   0  0  0  0  0  0  0  0  0  0  0  0
   12.1126   13.3308    4.3396 C   0  0  0  0  0  0  0  0  0  0  0  0
   11.6769   13.6379    5.7454 C   0  0  0  0  0  0  0  0  0  0  0  0
   12.4704   14.1140    6.5604 O   0  0  0  0  0  0  0  0  0  0  0  0
   10.2467   13.3220    6.1221 C   0  0  0  0  0  0  0  0  0  0  0  0
   10.1547   12.0162    6.8972 C   0  0  0  0  0  0  0  0  0  0  0  0
    8.7344   11.6297    7.1619 C   0  0  0  0  0  0  0  0  0  0  0  0
    7.9878   11.9496    8.2786 C   0  0  0  0  0  0  0  0  0  0  0  0
    6.7375   11.4133    8.1270 N   0  0  0  0  0  0  0  0  0  0  0  0
    6.6457   10.7483    6.9267 C   0  0  0  0  0  0  0  0  0  0  0  0
    5.5688   10.0593    6.3558 C   0  0  0  0  0  0  0  0  0  0  0  0
    5.7680    9.4690    5.1042 C   0  0  0  0  0  0  0  0  0  0  0  0
    6.9952    9.5651    4.4526 C   0  0  0  0  0  0  0  0  0  0  0  0
    8.0614   10.2579    5.0375 C   0  0  0  0  0  0  0  0  0  0  0  0
    7.8863   10.8629    6.2994 C   0  0  0  0  0  0  0  0  0  0  0  0
  1  2  1  0
  2  3  1  0
  3  4  1  0
  4  5  2  0
  4  6  1  0
  6  7  1  0
  7  8  2  0
  7  9  1  0
  9 10  1  0
 10 11  1  0
 11 12  2  0
 12 13  1  0
 13 14  1  0
 14 15  2  0
 15 16  1  0
 16 17  2  0
 17 18  1  0
 18 19  2  0
 19 11  1  0
 19 14  1  0
M  END
$$$$
