
     RDKit          3D

 19 20  0  0  0  0  0  0  0  0999 V2000
   10.7975   -6.4431    1.8442 N   0  0  0  0  0  0  0  0  0  0  0  0
   11.3045   -6.9608    0.5787 C   0  0  0  0  0  0  0  0  0  0  0  0
   11.3346   -5.8818   -0.4935 C   0  0  0  0  0  0  0  0  0  0  0  0
    9.9425   -5.5014   -0.9537 C   0  0  0  0  0  0  0  0  0  0  0  0
    9.1857   -6.3216   -1.4774 O   0  0  0  0  0  0  0  0  0  0  0  0
    9.5138   -4.0744   -0.7639 C   0  0  0  0  0  0  0  0  0  0  0  0
    9.0781   -3.7673    0.6419 C   0  0  0  0  0  0  0  0  0  0  0  0
    9.8716   -3.2912    1.4568 O   0  0  0  0  0  0  0  0  0  0  0  0
    7.6479   -4.0832    1.0186 C   0  0  0  0  0  0  0  0  0  0  0  0
    7.5559   -5.3890    1.7936 C   0  0  0  0  0  0  0  0  0  0  0  0
    6.1356   -5.7755    2.0584 C   0  0  0  0  0  0  0  0  0  0  0  0
    5.3890   -5.4556    3.1751 C   0  0  0  0  0  0  0  0  0  0  0  0
    4.1387   -5.9919    3.0235 N   0  0  0  0  0  0  0  0  0  0  0  0
    4.0469   -6.6569    1.8232 C   0  0  0  0  0  0  0  0  0  0  0  0
    2.9700   -7.3459    1.2523 C   0  0  0  0  0  0  0  0  0  0  0  0
    3.1692   -7.9362    0.0007 C   0  0  0  0  0  0  0  0  0  0  0  0
    4.3964   -7.8401   -0.6509 C   0  0  0  0  0  0  0  0  0  0  0  0
    5.4626   -7.1473   -0.0660 C   0  0  0  0  0  0  0  0  0  0  0  0
    5.2875   -6.5423    1.1958 C   0  0  0  0  0  0  0  0  0  0  0  0
  1  2  1  0
  2  3  1  0
  3  4  1  0
  4  5  2  0
  4  6  1  0
  6  7  1  0
  7  8  2  0
  7  9  1  0
  9 10  1  0
 10 11  1  0
 11 12  2  0
 12 13  1  0
 13 14  1  0
 14 15  2  0
 15 16  1  0
 16 17  2  0
 17 18  1  0
 18 19  2  0
 19 11  1  0
 19 14  1  0
M  END
$$$$
