
     RDKit          3D

 17 18  0  0  0  0  0  0  0  0999 V2000
    7.3747   -7.7913   -3.3227 C   0  0  0  0  0  0  0  0  0  0  0  0
    7.7705   -6.5243   -2.7341 N   0  0  0  0  0  0  0  0  0  0  0  0
    6.7984   -5.6979   -2.1371 C   0  0  0  0  0  0  0  0  0  0  0  0
    5.5662   -6.2064   -1.6980 C   0  0  0  0  0  0  0  0  0  0  0  0
    4.6108   -5.3847   -1.0924 C   0  0  0  0  0  0  0  0  0  0  0  0
    4.8679   -4.0353   -0.8799 C   0  0  0  0  0  0  0  0  0  0  0  0
    3.8497   -3.3421   -0.2865 O   0  0  0  0  0  0  0  0  0  0  0  0
    4.0756   -1.9607   -0.0360 C   0  0  0  0  0  0  0  0  0  0  0  0
    6.1041   -3.5194   -1.2605 C   0  0  0  0  0  0  0  0  0  0  0  0
    7.0896   -4.3324   -1.8619 C   0  0  0  0  0  0  0  0  0  0  0  0
    8.3159   -3.6967   -2.1478 N   0  0  0  0  0  0  0  0  0  0  0  0
    9.5248   -4.3310   -1.6224 C   0  0  0  0  0  0  0  0  0  0  0  0
   10.5913   -3.2466   -1.4484 C   0  0  0  0  0  0  0  0  0  0  0  0
   10.5784   -2.1784   -2.5434 C   0  0  0  0  0  0  0  0  0  0  0  0
    9.8016   -2.6101   -3.7689 C   0  0  0  0  0  0  0  0  0  0  0  0
   10.2422   -2.4265   -4.9047 O   0  0  0  0  0  0  0  0  0  0  0  0
    8.4144   -3.1936   -3.5278 C   0  0  0  0  0  0  0  0  0  0  0  0
  1  2  1  0
  2  3  1  0
  3  4  2  0
  4  5  1  0
  5  6  2  0
  6  7  1  0
  7  8  1  0
  6  9  1  0
  9 10  2  0
 10 11  1  0
 11 12  1  0
 12 13  1  0
 13 14  1  0
 14 15  1  0
 15 16  2  0
 15 17  1  0
 10  3  1  0
 17 11  1  0
M  END
$$$$
