
     RDKit          3D

 26 28  0  0  0  0  0  0  0  0999 V2000
   10.8869  -10.6156   70.0968 C   0  0  0  0  0  0  0  0  0  0  0  0
   10.4135  -11.4433   69.0176 N   0  0  0  0  0  0  0  0  0  0  0  0
   10.3056  -12.8148   69.1664 C   0  0  0  0  0  0  0  0  0  0  0  0
   10.4961  -13.3789   70.2400 O   0  0  0  0  0  0  0  0  0  0  0  0
    9.8892  -13.5287   67.8919 C   0  0  0  0  0  0  0  0  0  0  0  0
   10.4304  -14.9349   67.7537 C   0  0  0  0  0  0  0  0  0  0  0  0
    9.6882  -15.9778   68.3446 C   0  0  0  0  0  0  0  0  0  0  0  0
   10.0470  -17.3148   68.1711 C   0  0  0  0  0  0  0  0  0  0  0  0
   11.1500  -17.6331   67.3914 C   0  0  0  0  0  0  0  0  0  0  0  0
   11.6075  -18.8933   67.1171 O   0  0  0  0  0  0  0  0  0  0  0  0
   10.9064  -19.9736   67.7200 C   0  0  0  0  0  0  0  0  0  0  0  0
   11.8973  -16.5993   66.8176 C   0  0  0  0  0  0  0  0  0  0  0  0
   11.5891  -15.2383   67.0115 C   0  0  0  0  0  0  0  0  0  0  0  0
   12.4138  -14.2682   66.4550 N   0  0  0  0  0  0  0  0  0  0  0  0
   12.4916  -14.1642   65.0094 C   0  0  0  0  0  0  0  0  0  0  0  0
   11.3118  -13.5220   64.5389 O   0  0  0  0  0  0  0  0  0  0  0  0
   13.7028  -13.3450   64.5609 C   0  0  0  0  0  0  0  0  0  0  0  0
   13.7595  -11.9699   65.2343 C   0  0  0  0  0  0  0  0  0  0  0  0
   13.1274  -11.9786   66.6300 C   0  0  0  0  0  0  0  0  0  0  0  0
   13.2265  -13.3778   67.3013 C   0  0  0  0  0  0  0  0  0  0  0  0
   14.6589  -13.6719   67.5812 N   0  0  0  0  0  0  0  0  0  0  0  0
   14.8738  -15.0607   67.9839 C   0  0  0  0  0  0  0  0  0  0  0  0
   16.3712  -15.3899   68.0646 C   0  0  0  0  0  0  0  0  0  0  0  0
   17.2129  -14.2689   68.6687 C   0  0  0  0  0  0  0  0  0  0  0  0
   16.3404  -13.3072   69.4539 C   0  0  0  0  0  0  0  0  0  0  0  0
   15.2247  -12.7318   68.5721 C   0  0  0  0  0  0  0  0  0  0  0  0
  1  2  1  0
  2  3  1  0
  3  4  2  0
  3  5  1  0
  5  6  1  0
  6  7  2  0
  7  8  1  0
  8  9  2  0
  9 10  1  0
 10 11  1  0
  9 12  1  0
 12 13  2  0
 13 14  1  0
 14 15  1  0
 15 16  1  0
 15 17  1  0
 17 18  1  0
 18 19  1  0
 19 20  1  0
 20 21  1  0
 21 22  1  0
 22 23  1  0
 23 24  1  0
 24 25  1  0
 25 26  1  0
 13  6  1  0
 20 14  1  0
 26 21  1  0
M  END
$$$$
