
     RDKit          3D

 27 29  0  0  0  0  0  0  0  0999 V2000
  -19.0763   -1.4757   11.6935 N   0  0  0  0  0  0  0  0  0  0  0  0
  -19.4037   -0.4913   12.7213 C   0  0  0  0  0  0  0  0  0  0  0  0
  -20.9166   -0.2961   12.8266 C   0  0  0  0  0  0  0  0  0  0  0  0
  -21.3410    0.6293   13.9750 C   0  0  0  0  0  0  0  0  0  0  0  0
  -21.0489    2.0933   13.7357 C   0  0  0  0  0  0  0  0  0  0  0  0
  -19.7843    2.5895   14.0903 C   0  0  0  0  0  0  0  0  0  0  0  0
  -19.4863    3.9224   13.8619 C   0  0  0  0  0  0  0  0  0  0  0  0
  -20.3520    4.7945   13.3162 N   0  0  0  0  0  0  0  0  0  0  0  0
  -21.5704    4.3106   12.9906 C   0  0  0  0  0  0  0  0  0  0  0  0
  -21.9823    2.9872   13.1762 C   0  0  0  0  0  0  0  0  0  0  0  0
  -23.3884    2.6146   12.7739 C   0  0  0  0  0  0  0  0  0  0  0  0
  -23.4139    1.8143   11.5475 N   0  0  0  0  0  0  0  0  0  0  0  0
  -24.9402    1.4298   10.9254 S   0  0  0  0  0  0  0  0  0  0  0  0
  -24.7007    0.9617    9.5766 O   0  0  0  0  0  0  0  0  0  0  0  0
  -25.7808    2.5766   11.1838 O   0  0  0  0  0  0  0  0  0  0  0  0
  -25.4093    0.0084   11.8814 C   0  0  0  0  0  0  0  0  0  0  0  0
  -24.4349   -1.0038   11.9519 C   0  0  0  0  0  0  0  0  0  0  0  0
  -24.6549   -2.0810   12.7786 C   0  0  0  0  0  0  0  0  0  0  0  0
  -25.7649   -2.2121   13.5188 N   0  0  0  0  0  0  0  0  0  0  0  0
  -26.7029   -1.2351   13.3952 C   0  0  0  0  0  0  0  0  0  0  0  0
  -26.6215   -0.0957   12.5837 C   0  0  0  0  0  0  0  0  0  0  0  0
  -27.6672    0.8140   12.4972 N   0  0  0  0  0  0  0  0  0  0  0  0
  -28.5189    1.1108   13.6562 C   0  0  0  0  0  0  0  0  0  0  0  0
  -29.8424    0.3467   13.6030 C   0  0  0  0  0  0  0  0  0  0  0  0
  -30.5432    0.5236   12.2589 C   0  0  0  0  0  0  0  0  0  0  0  0
  -29.6040    0.1748   11.1081 C   0  0  0  0  0  0  0  0  0  0  0  0
  -28.3157    0.9919   11.1845 C   0  0  0  0  0  0  0  0  0  0  0  0
  1  2  1  0
  2  3  1  0
  3  4  1  0
  4  5  1  0
  5  6  2  0
  6  7  1  0
  7  8  2  0
  8  9  1  0
  9 10  2  0
 10 11  1  0
 11 12  1  0
 12 13  1  0
 13 14  2  0
 13 15  2  0
 13 16  1  0
 16 17  2  0
 17 18  1  0
 18 19  2  0
 19 20  1  0
 20 21  2  0
 21 22  1  0
 22 23  1  0
 23 24  1  0
 24 25  1  0
 25 26  1  0
 26 27  1  0
 10  5  1  0
 21 16  1  0
 27 22  1  0
M  END
$$$$
