
     RDKit          3D

 29 32  0  0  0  0  0  0  0  0999 V2000
    5.8931   -0.6986  -15.0931 N   0  0  0  0  0  0  0  0  0  0  0  0
    7.1742   -0.3990  -15.7504 C   0  0  0  0  0  0  0  0  0  0  0  0
    8.0999   -1.6077  -15.6415 C   0  0  0  0  0  0  0  0  0  0  0  0
    8.0518   -2.3876  -14.6834 O   0  0  0  0  0  0  0  0  0  0  0  0
    9.1066   -1.8547  -16.7139 C   0  0  0  0  0  0  0  0  0  0  0  0
    9.3685   -3.2011  -17.0100 C   0  0  0  0  0  0  0  0  0  0  0  0
   10.3154   -3.4988  -17.9727 C   0  0  0  0  0  0  0  0  0  0  0  0
   11.0124   -2.5612  -18.6418 N   0  0  0  0  0  0  0  0  0  0  0  0
   10.7572   -1.2666  -18.3194 C   0  0  0  0  0  0  0  0  0  0  0  0
    9.8108   -0.8330  -17.3766 C   0  0  0  0  0  0  0  0  0  0  0  0
    9.6052    0.5368  -17.0677 N   0  0  0  0  0  0  0  0  0  0  0  0
    9.0771    1.2474  -18.2705 C   0  0  0  0  0  0  0  0  0  0  0  0
    8.7306    2.6840  -17.9157 C   0  0  0  0  0  0  0  0  0  0  0  0
    7.6775    3.2183  -18.2615 O   0  0  0  0  0  0  0  0  0  0  0  0
    9.8186    3.4554  -17.2132 C   0  0  0  0  0  0  0  0  0  0  0  0
   10.3537    2.6431  -16.0408 C   0  0  0  0  0  0  0  0  0  0  0  0
   10.8003    1.2226  -16.4687 C   0  0  0  0  0  0  0  0  0  0  0  0
   11.3738    0.4625  -15.2302 C   0  0  0  0  0  0  0  0  0  0  0  0
   12.5734    1.1284  -14.6991 N   0  0  0  0  0  0  0  0  0  0  0  0
   13.6243    0.1802  -14.3129 C   0  0  0  0  0  0  0  0  0  0  0  0
   14.2757   -0.3843  -15.5383 C   0  0  0  0  0  0  0  0  0  0  0  0
   14.1261   -1.6682  -16.0296 C   0  0  0  0  0  0  0  0  0  0  0  0
   14.8693   -1.7861  -17.1747 N   0  0  0  0  0  0  0  0  0  0  0  0
   15.5217   -0.6075  -17.4427 C   0  0  0  0  0  0  0  0  0  0  0  0
   16.3822   -0.2731  -18.4974 C   0  0  0  0  0  0  0  0  0  0  0  0
   16.9086    1.0222  -18.5163 C   0  0  0  0  0  0  0  0  0  0  0  0
   16.5895    1.9434  -17.5176 C   0  0  0  0  0  0  0  0  0  0  0  0
   15.7233    1.5913  -16.4730 C   0  0  0  0  0  0  0  0  0  0  0  0
   15.1771    0.2910  -16.4303 C   0  0  0  0  0  0  0  0  0  0  0  0
  1  2  1  0
  2  3  1  0
  3  4  2  0
  3  5  1  0
  5  6  2  0
  6  7  1  0
  7  8  2  0
  8  9  1  0
  9 10  2  0
 10 11  1  0
 11 12  1  0
 12 13  1  0
 13 14  2  0
 13 15  1  0
 15 16  1  0
 16 17  1  0
 17 18  1  0
 18 19  1  0
 19 20  1  0
 20 21  1  0
 21 22  2  0
 22 23  1  0
 23 24  1  0
 24 25  2  0
 25 26  1  0
 26 27  2  0
 27 28  1  0
 28 29  2  0
 10  5  1  0
 17 11  1  0
 29 21  1  0
 29 24  1  0
M  END
$$$$
