
     RDKit          3D

 15 16  0  0  0  0  0  0  0  0999 V2000
  -32.0009  -32.5701  -48.6703 N   0  0  0  0  0  0  0  0  0  0  0  0
  -32.6877  -33.3837  -47.8200 C   0  0  0  0  0  0  0  0  0  0  0  0
  -33.0302  -32.9756  -46.7153 O   0  0  0  0  0  0  0  0  0  0  0  0
  -33.0015  -34.7725  -48.2883 C   0  0  0  0  0  0  0  0  0  0  0  0
  -33.8761  -35.5099  -47.4672 C   0  0  0  0  0  0  0  0  0  0  0  0
  -34.2481  -36.8119  -47.7983 C   0  0  0  0  0  0  0  0  0  0  0  0
  -33.7472  -37.3975  -48.9536 C   0  0  0  0  0  0  0  0  0  0  0  0
  -32.8746  -36.6823  -49.7770 C   0  0  0  0  0  0  0  0  0  0  0  0
  -32.4840  -35.3611  -49.4706 C   0  0  0  0  0  0  0  0  0  0  0  0
  -31.5716  -34.6637  -50.3145 N   0  0  0  0  0  0  0  0  0  0  0  0
  -32.0531  -34.5494  -51.7068 C   0  0  0  0  0  0  0  0  0  0  0  0
  -31.1176  -33.6170  -52.4780 C   0  0  0  0  0  0  0  0  0  0  0  0
  -29.6718  -34.1078  -52.4090 C   0  0  0  0  0  0  0  0  0  0  0  0
  -29.2347  -34.3240  -50.9607 C   0  0  0  0  0  0  0  0  0  0  0  0
  -30.2115  -35.2350  -50.2155 C   0  0  0  0  0  0  0  0  0  0  0  0
  1  2  1  0
  2  3  2  0
  2  4  1  0
  4  5  2  0
  5  6  1  0
  6  7  2  0
  7  8  1  0
  8  9  2  0
  9 10  1  0
 10 11  1  0
 11 12  1  0
 12 13  1  0
 13 14  1  0
 14 15  1  0
  9  4  1  0
 15 10  1  0
M  END
$$$$
