
     RDKit          3D

 19 20  0  0  0  0  0  0  0  0999 V2000
  -16.2319  -10.1011   10.6872 N   0  0  0  0  0  0  0  0  0  0  0  0
  -15.7249  -10.6188    9.4217 C   0  0  0  0  0  0  0  0  0  0  0  0
  -15.6948   -9.5399    8.3495 C   0  0  0  0  0  0  0  0  0  0  0  0
  -17.0869   -9.1594    7.8893 C   0  0  0  0  0  0  0  0  0  0  0  0
  -17.8437   -9.9796    7.3656 O   0  0  0  0  0  0  0  0  0  0  0  0
  -17.5156   -7.7324    8.0791 C   0  0  0  0  0  0  0  0  0  0  0  0
  -17.9513   -7.4253    9.4849 C   0  0  0  0  0  0  0  0  0  0  0  0
  -17.1578   -6.9492   10.2999 O   0  0  0  0  0  0  0  0  0  0  0  0
  -19.3815   -7.7412    9.8616 C   0  0  0  0  0  0  0  0  0  0  0  0
  -19.4735   -9.0470   10.6367 C   0  0  0  0  0  0  0  0  0  0  0  0
  -20.8938   -9.4335   10.9014 C   0  0  0  0  0  0  0  0  0  0  0  0
  -21.6404   -9.1136   12.0181 C   0  0  0  0  0  0  0  0  0  0  0  0
  -22.8907   -9.6499   11.8665 N   0  0  0  0  0  0  0  0  0  0  0  0
  -22.9825  -10.3149   10.6663 C   0  0  0  0  0  0  0  0  0  0  0  0
  -24.0594  -11.0039   10.0954 C   0  0  0  0  0  0  0  0  0  0  0  0
  -23.8602  -11.5942    8.8437 C   0  0  0  0  0  0  0  0  0  0  0  0
  -22.6330  -11.4981    8.1921 C   0  0  0  0  0  0  0  0  0  0  0  0
  -21.5668  -10.8053    8.7771 C   0  0  0  0  0  0  0  0  0  0  0  0
  -21.7419  -10.2003   10.0389 C   0  0  0  0  0  0  0  0  0  0  0  0
  1  2  1  0
  2  3  1  0
  3  4  1  0
  4  5  2  0
  4  6  1  0
  6  7  1  0
  7  8  2  0
  7  9  1  0
  9 10  1  0
 10 11  1  0
 11 12  2  0
 12 13  1  0
 13 14  1  0
 14 15  2  0
 15 16  1  0
 16 17  2  0
 17 18  1  0
 18 19  2  0
 19 11  1  0
 19 14  1  0
M  END
$$$$
