
     RDKit          3D

 19 20  0  0  0  0  0  0  0  0999 V2000
   39.8865    4.6139  -41.9894 N   0  0  0  0  0  0  0  0  0  0  0  0
   40.3935    4.0962  -43.2549 C   0  0  0  0  0  0  0  0  0  0  0  0
   40.4235    5.1752  -44.3271 C   0  0  0  0  0  0  0  0  0  0  0  0
   39.0315    5.5556  -44.7873 C   0  0  0  0  0  0  0  0  0  0  0  0
   38.2747    4.7354  -45.3110 O   0  0  0  0  0  0  0  0  0  0  0  0
   38.6028    6.9827  -44.5975 C   0  0  0  0  0  0  0  0  0  0  0  0
   38.1671    7.2897  -43.1917 C   0  0  0  0  0  0  0  0  0  0  0  0
   38.9606    7.7658  -42.3768 O   0  0  0  0  0  0  0  0  0  0  0  0
   36.7369    6.9738  -42.8150 C   0  0  0  0  0  0  0  0  0  0  0  0
   36.6449    5.6680  -42.0400 C   0  0  0  0  0  0  0  0  0  0  0  0
   35.2246    5.2815  -41.7752 C   0  0  0  0  0  0  0  0  0  0  0  0
   34.4779    5.6015  -40.6585 C   0  0  0  0  0  0  0  0  0  0  0  0
   33.2277    5.0652  -40.8101 N   0  0  0  0  0  0  0  0  0  0  0  0
   33.1359    4.4001  -42.0104 C   0  0  0  0  0  0  0  0  0  0  0  0
   32.0590    3.7112  -42.5813 C   0  0  0  0  0  0  0  0  0  0  0  0
   32.2582    3.1209  -43.8329 C   0  0  0  0  0  0  0  0  0  0  0  0
   33.4854    3.2169  -44.4845 C   0  0  0  0  0  0  0  0  0  0  0  0
   34.5516    3.9097  -43.8996 C   0  0  0  0  0  0  0  0  0  0  0  0
   34.3765    4.5147  -42.6377 C   0  0  0  0  0  0  0  0  0  0  0  0
  1  2  1  0
  2  3  1  0
  3  4  1  0
  4  5  2  0
  4  6  1  0
  6  7  1  0
  7  8  2  0
  7  9  1  0
  9 10  1  0
 10 11  1  0
 11 12  2  0
 12 13  1  0
 13 14  1  0
 14 15  2  0
 15 16  1  0
 16 17  2  0
 17 18  1  0
 18 19  2  0
 19 11  1  0
 19 14  1  0
M  END
$$$$
