
     RDKit          3D

 18 19  0  0  0  0  0  0  0  0999 V2000
   27.2870   -1.9257    8.0438 N   0  0  0  0  0  0  0  0  0  0  0  0
   26.4663   -2.9679    7.4375 C   0  0  0  0  0  0  0  0  0  0  0  0
   26.5690   -4.2594    8.2505 C   0  0  0  0  0  0  0  0  0  0  0  0
   25.8222   -5.4226    7.5988 C   0  0  0  0  0  0  0  0  0  0  0  0
   24.3073   -5.3101    7.6706 C   0  0  0  0  0  0  0  0  0  0  0  0
   23.7385   -4.4009    8.2735 O   0  0  0  0  0  0  0  0  0  0  0  0
   23.5322   -6.4084    6.9552 C   0  0  0  0  0  0  0  0  0  0  0  0
   22.0187   -6.2415    7.0733 C   0  0  0  0  0  0  0  0  0  0  0  0
   21.4902   -5.1010    6.1983 C   0  0  0  0  0  0  0  0  0  0  0  0
   20.0618   -4.8125    6.5015 C   0  0  0  0  0  0  0  0  0  0  0  0
   19.0070   -5.2896    5.8744 N   0  0  0  0  0  0  0  0  0  0  0  0
   17.9212   -4.7437    6.5159 C   0  0  0  0  0  0  0  0  0  0  0  0
   16.5520   -4.9108    6.2633 C   0  0  0  0  0  0  0  0  0  0  0  0
   15.6314   -4.2347    7.0746 C   0  0  0  0  0  0  0  0  0  0  0  0
   16.0657   -3.4098    8.1156 C   0  0  0  0  0  0  0  0  0  0  0  0
   17.4283   -3.2307    8.3828 C   0  0  0  0  0  0  0  0  0  0  0  0
   18.3230   -3.9160    7.5583 C   0  0  0  0  0  0  0  0  0  0  0  0
   19.6918   -3.9765    7.5275 N   0  0  0  0  0  0  0  0  0  0  0  0
  1  2  1  0
  2  3  1  0
  3  4  1  0
  4  5  1  0
  5  6  2  0
  5  7  1  0
  7  8  1  0
  8  9  1  0
  9 10  1  0
 10 11  2  0
 11 12  1  0
 12 13  2  0
 13 14  1  0
 14 15  2  0
 15 16  1  0
 16 17  2  0
 17 18  1  0
 18 10  1  0
 17 12  1  0
M  END
$$$$
