
     RDKit          3D

 19 20  0  0  0  0  0  0  0  0999 V2000
  -11.9671    9.9622    8.9999 C   0  0  0  0  0  0  0  0  0  0  0  0
  -12.2239    9.0497    7.9193 N   0  0  0  0  0  0  0  0  0  0  0  0
  -11.1818    8.4597    7.2357 C   0  0  0  0  0  0  0  0  0  0  0  0
  -10.0033    8.7716    7.3825 O   0  0  0  0  0  0  0  0  0  0  0  0
  -11.6330    7.3890    6.2631 C   0  0  0  0  0  0  0  0  0  0  0  0
  -11.7900    6.0320    6.9132 C   0  0  0  0  0  0  0  0  0  0  0  0
  -10.7444    5.1024    6.7667 C   0  0  0  0  0  0  0  0  0  0  0  0
  -10.8293    3.8261    7.3247 C   0  0  0  0  0  0  0  0  0  0  0  0
  -11.9661    3.4566    8.0333 C   0  0  0  0  0  0  0  0  0  0  0  0
  -12.1933    2.2369    8.6114 O   0  0  0  0  0  0  0  0  0  0  0  0
  -11.1558    1.2706    8.4990 C   0  0  0  0  0  0  0  0  0  0  0  0
  -13.0036    4.3822    8.1950 C   0  0  0  0  0  0  0  0  0  0  0  0
  -12.9308    5.6860    7.6714 C   0  0  0  0  0  0  0  0  0  0  0  0
  -13.9778    6.6267    7.8408 N   0  0  0  0  0  0  0  0  0  0  0  0
  -15.0170    6.4437    6.8131 C   0  0  0  0  0  0  0  0  0  0  0  0
  -15.8507    7.7253    6.7277 C   0  0  0  0  0  0  0  0  0  0  0  0
  -16.0660    8.3966    8.0874 C   0  0  0  0  0  0  0  0  0  0  0  0
  -15.8932    7.4111    9.2355 C   0  0  0  0  0  0  0  0  0  0  0  0
  -14.5186    6.7278    9.2190 C   0  0  0  0  0  0  0  0  0  0  0  0
  1  2  1  0
  2  3  1  0
  3  4  2  0
  3  5  1  0
  5  6  1  0
  6  7  2  0
  7  8  1  0
  8  9  2  0
  9 10  1  0
 10 11  1  0
  9 12  1  0
 12 13  2  0
 13 14  1  0
 14 15  1  0
 15 16  1  0
 16 17  1  0
 17 18  1  0
 18 19  1  0
 13  6  1  0
 19 14  1  0
M  END
$$$$
