
     RDKit          3D

 16 17  0  0  0  0  0  0  0  0999 V2000
   64.1674   -6.3253   19.3360 N   0  0  0  0  0  0  0  0  0  0  0  0
   65.5230   -6.5554   18.8484 C   0  0  0  0  0  0  0  0  0  0  0  0
   65.9747   -8.0106   18.9812 C   0  0  0  0  0  0  0  0  0  0  0  0
   66.1172   -8.4651   20.4361 C   0  0  0  0  0  0  0  0  0  0  0  0
   66.7016   -9.8565   20.5352 C   0  0  0  0  0  0  0  0  0  0  0  0
   65.8374  -10.9613   20.5435 C   0  0  0  0  0  0  0  0  0  0  0  0
   66.3735  -12.2362   20.6312 C   0  0  0  0  0  0  0  0  0  0  0  0
   67.6936  -12.4900   20.7101 N   0  0  0  0  0  0  0  0  0  0  0  0
   68.5101  -11.4094   20.6925 C   0  0  0  0  0  0  0  0  0  0  0  0
   68.0890  -10.0762   20.5960 C   0  0  0  0  0  0  0  0  0  0  0  0
   68.9780   -8.9845   20.5873 N   0  0  0  0  0  0  0  0  0  0  0  0
   69.6153   -8.7671   21.8902 C   0  0  0  0  0  0  0  0  0  0  0  0
   70.1896   -7.3482   21.9271 C   0  0  0  0  0  0  0  0  0  0  0  0
   70.7791   -6.9013   20.5856 C   0  0  0  0  0  0  0  0  0  0  0  0
   71.1229   -8.0909   19.6981 C   0  0  0  0  0  0  0  0  0  0  0  0
   69.9000   -8.9781   19.4355 C   0  0  0  0  0  0  0  0  0  0  0  0
  1  2  1  0
  2  3  1  0
  3  4  1  0
  4  5  1  0
  5  6  2  0
  6  7  1  0
  7  8  2  0
  8  9  1  0
  9 10  2  0
 10 11  1  0
 11 12  1  0
 12 13  1  0
 13 14  1  0
 14 15  1  0
 15 16  1  0
 10  5  1  0
 16 11  1  0
M  END
$$$$
