
     RDKit          3D

 20 21  0  0  0  0  0  0  0  0999 V2000
  -50.1059  -38.5120   30.9334 C   0  0  0  0  0  0  0  0  0  0  0  0
  -49.9611  -37.1888   31.5376 N   0  0  0  0  0  0  0  0  0  0  0  0
  -50.3489  -36.1254   30.5973 C   0  0  0  0  0  0  0  0  0  0  0  0
  -51.8539  -36.1179   30.3532 C   0  0  0  0  0  0  0  0  0  0  0  0
  -52.3051  -36.3924   29.2386 O   0  0  0  0  0  0  0  0  0  0  0  0
  -52.7271  -35.8012   31.5578 C   0  0  0  0  0  0  0  0  0  0  0  0
  -54.0622  -35.1836   31.2103 C   0  0  0  0  0  0  0  0  0  0  0  0
  -54.0675  -33.8028   30.9209 C   0  0  0  0  0  0  0  0  0  0  0  0
  -55.2490  -33.1322   30.6071 C   0  0  0  0  0  0  0  0  0  0  0  0
  -56.4557  -33.8196   30.5691 C   0  0  0  0  0  0  0  0  0  0  0  0
  -57.5446  -33.0545   30.2533 O   0  0  0  0  0  0  0  0  0  0  0  0
  -58.7901  -33.7323   30.1457 C   0  0  0  0  0  0  0  0  0  0  0  0
  -56.4605  -35.1863   30.8471 C   0  0  0  0  0  0  0  0  0  0  0  0
  -55.2781  -35.8931   31.1618 C   0  0  0  0  0  0  0  0  0  0  0  0
  -55.4450  -37.2612   31.4097 N   0  0  0  0  0  0  0  0  0  0  0  0
  -54.7415  -38.1791   30.5096 C   0  0  0  0  0  0  0  0  0  0  0  0
  -55.3926  -39.5600   30.6079 C   0  0  0  0  0  0  0  0  0  0  0  0
  -55.4303  -40.0480   32.0564 C   0  0  0  0  0  0  0  0  0  0  0  0
  -56.1093  -39.0203   32.9619 C   0  0  0  0  0  0  0  0  0  0  0  0
  -55.4641  -37.6399   32.8246 C   0  0  0  0  0  0  0  0  0  0  0  0
  1  2  1  0
  2  3  1  0
  3  4  1  0
  4  5  2  0
  4  6  1  0
  6  7  1  0
  7  8  2  0
  8  9  1  0
  9 10  2  0
 10 11  1  0
 11 12  1  0
 10 13  1  0
 13 14  2  0
 14 15  1  0
 15 16  1  0
 16 17  1  0
 17 18  1  0
 18 19  1  0
 19 20  1  0
 14  7  1  0
 20 15  1  0
M  END
$$$$
