
     RDKit          3D

 19 20  0  0  0  0  0  0  0  0999 V2000
  -22.9745  -16.6187   38.1290 N   0  0  0  0  0  0  0  0  0  0  0  0
  -23.6139  -15.3039   38.1174 C   0  0  0  0  0  0  0  0  0  0  0  0
  -24.2638  -14.9569   39.4496 C   0  0  0  0  0  0  0  0  0  0  0  0
  -25.5930  -15.6582   39.6424 C   0  0  0  0  0  0  0  0  0  0  0  0
  -25.7510  -16.4752   40.5529 O   0  0  0  0  0  0  0  0  0  0  0  0
  -26.7063  -15.3290   38.6622 C   0  0  0  0  0  0  0  0  0  0  0  0
  -28.0838  -15.5235   39.2816 C   0  0  0  0  0  0  0  0  0  0  0  0
  -28.3535  -14.5271   40.3955 C   0  0  0  0  0  0  0  0  0  0  0  0
  -27.6199  -13.5539   40.5836 O   0  0  0  0  0  0  0  0  0  0  0  0
  -29.5873  -14.7719   41.2439 C   0  0  0  0  0  0  0  0  0  0  0  0
  -30.8376  -14.4883   40.4823 C   0  0  0  0  0  0  0  0  0  0  0  0
  -31.3772  -13.2412   40.2407 C   0  0  0  0  0  0  0  0  0  0  0  0
  -32.5168  -13.4004   39.5012 N   0  0  0  0  0  0  0  0  0  0  0  0
  -32.7302  -14.7289   39.2379 C   0  0  0  0  0  0  0  0  0  0  0  0
  -33.7555  -15.3475   38.5127 C   0  0  0  0  0  0  0  0  0  0  0  0
  -33.7210  -16.7431   38.3978 C   0  0  0  0  0  0  0  0  0  0  0  0
  -32.7009  -17.4834   38.9867 C   0  0  0  0  0  0  0  0  0  0  0  0
  -31.6863  -16.8488   39.7137 C   0  0  0  0  0  0  0  0  0  0  0  0
  -31.6967  -15.4414   39.8439 C   0  0  0  0  0  0  0  0  0  0  0  0
  1  2  1  0
  2  3  1  0
  3  4  1  0
  4  5  2  0
  4  6  1  0
  6  7  1  0
  7  8  1  0
  8  9  2  0
  8 10  1  0
 10 11  1  0
 11 12  2  0
 12 13  1  0
 13 14  1  0
 14 15  2  0
 15 16  1  0
 16 17  2  0
 17 18  1  0
 18 19  2  0
 19 11  1  0
 19 14  1  0
M  END
$$$$
