
     RDKit          3D

 31 34  0  0  0  0  0  0  0  0999 V2000
    1.9470   15.8079  -21.3258 N   0  0  0  0  0  0  0  0  0  0  0  0
    3.1177   14.6365  -21.0631 S   0  0  0  0  0  0  0  0  0  0  0  0
    2.5538   13.4516  -21.6785 O   0  0  0  0  0  0  0  0  0  0  0  0
    3.4551   14.6602  -19.6596 O   0  0  0  0  0  0  0  0  0  0  0  0
    4.5362   15.1036  -22.0044 C   0  0  0  0  0  0  0  0  0  0  0  0
    5.2092   14.0607  -22.6565 C   0  0  0  0  0  0  0  0  0  0  0  0
    6.3706   14.3470  -23.3434 C   0  0  0  0  0  0  0  0  0  0  0  0
    6.9004   15.5840  -23.4109 N   0  0  0  0  0  0  0  0  0  0  0  0
    6.2025   16.5752  -22.7942 C   0  0  0  0  0  0  0  0  0  0  0  0
    5.0196   16.4158  -22.0600 C   0  0  0  0  0  0  0  0  0  0  0  0
    4.3754   17.5039  -21.4507 N   0  0  0  0  0  0  0  0  0  0  0  0
    3.5923   18.3046  -22.4172 C   0  0  0  0  0  0  0  0  0  0  0  0
    4.2047   19.6829  -22.6440 C   0  0  0  0  0  0  0  0  0  0  0  0
    4.2851   20.4737  -21.3398 C   0  0  0  0  0  0  0  0  0  0  0  0
    4.4381   19.5673  -20.1207 C   0  0  0  0  0  0  0  0  0  0  0  0
    5.1681   18.2624  -20.4623 C   0  0  0  0  0  0  0  0  0  0  0  0
    5.2470   17.5223  -19.2494 O   0  0  0  0  0  0  0  0  0  0  0  0
    6.5074   16.9102  -19.0441 C   0  0  0  0  0  0  0  0  0  0  0  0
    7.4916   17.9167  -18.6863 N   0  0  0  0  0  0  0  0  0  0  0  0
    8.8435   17.3810  -18.5361 C   0  0  0  0  0  0  0  0  0  0  0  0
    9.6078   17.3360  -19.8654 C   0  0  0  0  0  0  0  0  0  0  0  0
    9.6399   15.9427  -20.4998 C   0  0  0  0  0  0  0  0  0  0  0  0
   10.3868   15.9513  -21.7894 C   0  0  0  0  0  0  0  0  0  0  0  0
   11.6855   16.1214  -21.9437 N   0  0  0  0  0  0  0  0  0  0  0  0
   11.9131   16.0194  -23.2959 C   0  0  0  0  0  0  0  0  0  0  0  0
   13.1129   16.1047  -24.0166 C   0  0  0  0  0  0  0  0  0  0  0  0
   13.0729   15.9478  -25.4111 C   0  0  0  0  0  0  0  0  0  0  0  0
   11.8640   15.7075  -26.0731 C   0  0  0  0  0  0  0  0  0  0  0  0
   10.6571   15.6232  -25.3702 C   0  0  0  0  0  0  0  0  0  0  0  0
   10.7269   15.7879  -23.9826 C   0  0  0  0  0  0  0  0  0  0  0  0
    9.7676   15.7749  -23.0032 N   0  0  0  0  0  0  0  0  0  0  0  0
  1  2  1  0
  2  3  2  0
  2  4  2  0
  2  5  1  0
  5  6  2  0
  6  7  1  0
  7  8  2  0
  8  9  1  0
  9 10  2  0
 10 11  1  0
 11 12  1  0
 12 13  1  0
 13 14  1  0
 14 15  1  0
 15 16  1  0
 16 17  1  0
 17 18  1  0
 18 19  1  0
 19 20  1  0
 20 21  1  0
 21 22  1  0
 22 23  1  0
 23 24  2  0
 24 25  1  0
 25 26  2  0
 26 27  1  0
 27 28  2  0
 28 29  1  0
 29 30  2  0
 30 31  1  0
 10  5  1  0
 16 11  1  0
 31 23  1  0
 30 25  1  0
M  END
$$$$
