
     RDKit          3D

 30 33  0  0  0  0  0  0  0  0999 V2000
   39.5491   14.3207  -23.3615 N   0  0  0  0  0  0  0  0  0  0  0  0
   40.9364   13.9669  -22.4839 S   0  0  0  0  0  0  0  0  0  0  0  0
   41.7698   15.1513  -22.5003 O   0  0  0  0  0  0  0  0  0  0  0  0
   41.4063   12.7199  -23.0530 O   0  0  0  0  0  0  0  0  0  0  0  0
   40.3432   13.6537  -20.8521 C   0  0  0  0  0  0  0  0  0  0  0  0
   40.6175   12.3992  -20.2985 C   0  0  0  0  0  0  0  0  0  0  0  0
   40.1683   12.1321  -19.0172 C   0  0  0  0  0  0  0  0  0  0  0  0
   39.4806   13.0138  -18.2794 N   0  0  0  0  0  0  0  0  0  0  0  0
   39.2284   14.2161  -18.8414 C   0  0  0  0  0  0  0  0  0  0  0  0
   39.6365   14.6166  -20.1215 C   0  0  0  0  0  0  0  0  0  0  0  0
   39.3461   15.8962  -20.6278 N   0  0  0  0  0  0  0  0  0  0  0  0
   37.8940   16.1252  -20.8266 C   0  0  0  0  0  0  0  0  0  0  0  0
   37.3661   17.2427  -19.9366 C   0  0  0  0  0  0  0  0  0  0  0  0
   38.1010   18.5499  -20.2019 C   0  0  0  0  0  0  0  0  0  0  0  0
   39.5780   18.3317  -20.5443 C   0  0  0  0  0  0  0  0  0  0  0  0
   40.1118   16.9919  -19.9952 C   0  0  0  0  0  0  0  0  0  0  0  0
   41.5461   17.0171  -20.2640 N   0  0  0  0  0  0  0  0  0  0  0  0
   42.3515   16.4663  -19.1779 C   0  0  0  0  0  0  0  0  0  0  0  0
   43.7506   16.0822  -19.6651 C   0  0  0  0  0  0  0  0  0  0  0  0
   44.5030   17.2519  -20.2983 C   0  0  0  0  0  0  0  0  0  0  0  0
   45.8042   16.8377  -20.7851 N   0  0  0  0  0  0  0  0  0  0  0  0
   45.9927   16.0602  -21.8762 C   0  0  0  0  0  0  0  0  0  0  0  0
   47.1065   15.4322  -22.1748 N   0  0  0  0  0  0  0  0  0  0  0  0
   46.8504   14.7598  -23.3425 C   0  0  0  0  0  0  0  0  0  0  0  0
   47.6904   13.9345  -24.1011 C   0  0  0  0  0  0  0  0  0  0  0  0
   47.1794   13.3521  -25.2700 C   0  0  0  0  0  0  0  0  0  0  0  0
   45.8558   13.5826  -25.6653 C   0  0  0  0  0  0  0  0  0  0  0  0
   45.0019   14.4040  -24.9196 C   0  0  0  0  0  0  0  0  0  0  0  0
   45.5426   14.9765  -23.7656 C   0  0  0  0  0  0  0  0  0  0  0  0
   45.0191   15.8152  -22.8148 N   0  0  0  0  0  0  0  0  0  0  0  0
  1  2  1  0
  2  3  2  0
  2  4  2  0
  2  5  1  0
  5  6  2  0
  6  7  1  0
  7  8  2  0
  8  9  1  0
  9 10  2  0
 10 11  1  0
 11 12  1  0
 12 13  1  0
 13 14  1  0
 14 15  1  0
 15 16  1  0
 16 17  1  0
 17 18  1  0
 18 19  1  0
 19 20  1  0
 20 21  1  0
 21 22  1  0
 22 23  2  0
 23 24  1  0
 24 25  2  0
 25 26  1  0
 26 27  2  0
 27 28  1  0
 28 29  2  0
 29 30  1  0
 10  5  1  0
 16 11  1  0
 30 22  1  0
 29 24  1  0
M  END
$$$$
