
     RDKit          3D

 22 24  0  0  0  0  0  0  0  0999 V2000
  -33.1367   -2.2830   16.4774 N   0  0  0  0  0  0  0  0  0  0  0  0
  -33.1674   -2.8987   15.1426 C   0  0  0  0  0  0  0  0  0  0  0  0
  -31.7740   -2.8929   14.5308 C   0  0  0  0  0  0  0  0  0  0  0  0
  -30.9990   -1.9431   14.6454 O   0  0  0  0  0  0  0  0  0  0  0  0
  -31.3923   -4.0264   13.6670 C   0  0  0  0  0  0  0  0  0  0  0  0
  -31.2948   -3.7396   12.3009 C   0  0  0  0  0  0  0  0  0  0  0  0
  -30.9069   -4.7549   11.4515 C   0  0  0  0  0  0  0  0  0  0  0  0
  -30.6137   -5.9991   11.8731 N   0  0  0  0  0  0  0  0  0  0  0  0
  -30.6910   -6.2293   13.2078 C   0  0  0  0  0  0  0  0  0  0  0  0
  -31.0696   -5.2957   14.1780 C   0  0  0  0  0  0  0  0  0  0  0  0
  -31.1022   -5.5917   15.5535 N   0  0  0  0  0  0  0  0  0  0  0  0
  -32.3097   -6.3146   15.9835 C   0  0  0  0  0  0  0  0  0  0  0  0
  -32.2012   -7.8231   15.7892 C   0  0  0  0  0  0  0  0  0  0  0  0
  -30.8438   -8.3782   16.1963 C   0  0  0  0  0  0  0  0  0  0  0  0
  -30.0199   -7.3536   16.9638 C   0  0  0  0  0  0  0  0  0  0  0  0
  -29.8029   -6.0308   16.1656 C   0  0  0  0  0  0  0  0  0  0  0  0
  -29.0930   -5.1110   17.0873 N   0  0  0  0  0  0  0  0  0  0  0  0
  -29.2434   -3.7021   16.6876 C   0  0  0  0  0  0  0  0  0  0  0  0
  -28.2620   -2.7417   17.3789 C   0  0  0  0  0  0  0  0  0  0  0  0
  -27.7460   -3.3128   18.6897 C   0  0  0  0  0  0  0  0  0  0  0  0
  -27.0951   -4.6769   18.4601 C   0  0  0  0  0  0  0  0  0  0  0  0
  -27.6675   -5.4215   17.2449 C   0  0  0  0  0  0  0  0  0  0  0  0
  1  2  1  0
  2  3  1  0
  3  4  2  0
  3  5  1  0
  5  6  2  0
  6  7  1  0
  7  8  2  0
  8  9  1  0
  9 10  2  0
 10 11  1  0
 11 12  1  0
 12 13  1  0
 13 14  1  0
 14 15  1  0
 15 16  1  0
 16 17  1  0
 17 18  1  0
 18 19  1  0
 19 20  1  0
 20 21  1  0
 21 22  1  0
 10  5  1  0
 16 11  1  0
 22 17  1  0
M  END
$$$$
