
     RDKit          3D

 19 20  0  0  0  0  0  0  0  0999 V2000
   -1.3298    0.6613   13.8253 N   0  0  0  0  0  0  0  0  0  0  0  0
   -0.8228    0.1436   12.5599 C   0  0  0  0  0  0  0  0  0  0  0  0
   -0.7928    1.2226   11.4877 C   0  0  0  0  0  0  0  0  0  0  0  0
   -2.1848    1.6030   11.0274 C   0  0  0  0  0  0  0  0  0  0  0  0
   -2.9416    0.7828   10.5038 O   0  0  0  0  0  0  0  0  0  0  0  0
   -2.6135    3.0300   11.2173 C   0  0  0  0  0  0  0  0  0  0  0  0
   -3.0492    3.3371   12.6230 C   0  0  0  0  0  0  0  0  0  0  0  0
   -2.2557    3.8132   13.4380 O   0  0  0  0  0  0  0  0  0  0  0  0
   -4.4794    3.0212   12.9997 C   0  0  0  0  0  0  0  0  0  0  0  0
   -4.5714    1.7154   13.7748 C   0  0  0  0  0  0  0  0  0  0  0  0
   -5.9917    1.3289   14.0395 C   0  0  0  0  0  0  0  0  0  0  0  0
   -6.7384    1.6489   15.1562 C   0  0  0  0  0  0  0  0  0  0  0  0
   -7.9886    1.1126   15.0046 N   0  0  0  0  0  0  0  0  0  0  0  0
   -8.0804    0.4475   13.8044 C   0  0  0  0  0  0  0  0  0  0  0  0
   -9.1573   -0.2414   13.2335 C   0  0  0  0  0  0  0  0  0  0  0  0
   -8.9581   -0.8317   11.9819 C   0  0  0  0  0  0  0  0  0  0  0  0
   -7.7309   -0.7357   11.3303 C   0  0  0  0  0  0  0  0  0  0  0  0
   -6.6647   -0.0429   11.9152 C   0  0  0  0  0  0  0  0  0  0  0  0
   -6.8399    0.5621   13.1770 C   0  0  0  0  0  0  0  0  0  0  0  0
  1  2  1  0
  2  3  1  0
  3  4  1  0
  4  5  2  0
  4  6  1  0
  6  7  1  0
  7  8  2  0
  7  9  1  0
  9 10  1  0
 10 11  1  0
 11 12  2  0
 12 13  1  0
 13 14  1  0
 14 15  2  0
 15 16  1  0
 16 17  2  0
 17 18  1  0
 18 19  2  0
 19 11  1  0
 19 14  1  0
M  END
$$$$
