
     RDKit          3D

 28 31  0  0  0  0  0  0  0  0999 V2000
   20.4549   38.2583  -37.3567 N   0  0  0  0  0  0  0  0  0  0  0  0
   20.0717   37.4997  -38.5471 C   0  0  0  0  0  0  0  0  0  0  0  0
   20.3594   38.2604  -39.8243 C   0  0  0  0  0  0  0  0  0  0  0  0
   19.7387   39.5178  -39.9911 C   0  0  0  0  0  0  0  0  0  0  0  0
   19.8730   40.2388  -41.1734 C   0  0  0  0  0  0  0  0  0  0  0  0
   20.6176   39.7027  -42.2073 C   0  0  0  0  0  0  0  0  0  0  0  0
   20.7188   40.4259  -43.3593 O   0  0  0  0  0  0  0  0  0  0  0  0
   21.2460   38.4662  -42.0693 C   0  0  0  0  0  0  0  0  0  0  0  0
   21.1431   37.7244  -40.8756 C   0  0  0  0  0  0  0  0  0  0  0  0
   21.8017   36.4842  -40.7222 N   0  0  0  0  0  0  0  0  0  0  0  0
   21.8444   35.5750  -41.8675 C   0  0  0  0  0  0  0  0  0  0  0  0
   20.4998   35.2948  -42.2256 O   0  0  0  0  0  0  0  0  0  0  0  0
   22.4958   34.2314  -41.5182 C   0  0  0  0  0  0  0  0  0  0  0  0
   22.6874   34.0412  -40.0197 C   0  0  0  0  0  0  0  0  0  0  0  0
   23.4849   35.1896  -39.4170 C   0  0  0  0  0  0  0  0  0  0  0  0
   23.0543   36.5803  -39.9155 C   0  0  0  0  0  0  0  0  0  0  0  0
   24.2003   37.4056  -40.5821 C   0  0  0  0  0  0  0  0  0  0  0  0
   24.6973   37.0194  -41.9181 N   0  0  0  0  0  0  0  0  0  0  0  0
   25.7977   36.0490  -41.9060 C   0  0  0  0  0  0  0  0  0  0  0  0
   27.0189   36.5184  -41.1833 C   0  0  0  0  0  0  0  0  0  0  0  0
   27.3567   36.2234  -39.9415 N   0  0  0  0  0  0  0  0  0  0  0  0
   28.5353   36.8870  -39.7082 C   0  0  0  0  0  0  0  0  0  0  0  0
   29.3300   36.9237  -38.5542 C   0  0  0  0  0  0  0  0  0  0  0  0
   30.5002   37.6916  -38.5693 C   0  0  0  0  0  0  0  0  0  0  0  0
   30.8712   38.4052  -39.7129 C   0  0  0  0  0  0  0  0  0  0  0  0
   30.0913   38.3777  -40.8767 C   0  0  0  0  0  0  0  0  0  0  0  0
   28.9294   37.6055  -40.8315 C   0  0  0  0  0  0  0  0  0  0  0  0
   27.9502   37.3498  -41.7578 N   0  0  0  0  0  0  0  0  0  0  0  0
  1  2  1  0
  2  3  1  0
  3  4  2  0
  4  5  1  0
  5  6  2  0
  6  7  1  0
  6  8  1  0
  8  9  2  0
  9 10  1  0
 10 11  1  0
 11 12  1  0
 11 13  1  0
 13 14  1  0
 14 15  1  0
 15 16  1  0
 16 17  1  0
 17 18  1  0
 18 19  1  0
 19 20  1  0
 20 21  2  0
 21 22  1  0
 22 23  2  0
 23 24  1  0
 24 25  2  0
 25 26  1  0
 26 27  2  0
 27 28  1  0
  9  3  1  0
 16 10  1  0
 28 20  1  0
 27 22  1  0
M  END
$$$$
