
     RDKit          3D

 17 18  0  0  0  0  0  0  0  0999 V2000
  -84.7984   10.1108   60.6239 N   0  0  0  0  0  0  0  0  0  0  0  0
  -83.6942   11.0162   60.9041 C   0  0  0  0  0  0  0  0  0  0  0  0
  -83.2805   11.8621   59.6960 C   0  0  0  0  0  0  0  0  0  0  0  0
  -82.9598   11.0788   58.4274 C   0  0  0  0  0  0  0  0  0  0  0  0
  -81.9449    9.9778   58.6541 C   0  0  0  0  0  0  0  0  0  0  0  0
  -82.3055    8.8017   58.7163 O   0  0  0  0  0  0  0  0  0  0  0  0
  -80.4996   10.3947   58.8219 C   0  0  0  0  0  0  0  0  0  0  0  0
  -79.5784    9.1829   58.9256 C   0  0  0  0  0  0  0  0  0  0  0  0
  -78.1515    9.5875   59.0757 C   0  0  0  0  0  0  0  0  0  0  0  0
  -77.5804   10.6718   58.5929 N   0  0  0  0  0  0  0  0  0  0  0  0
  -76.2613   10.5957   58.9698 C   0  0  0  0  0  0  0  0  0  0  0  0
  -75.2045   11.4838   58.7252 C   0  0  0  0  0  0  0  0  0  0  0  0
  -73.9341   11.1709   59.2272 C   0  0  0  0  0  0  0  0  0  0  0  0
  -73.7209    9.9963   59.9554 C   0  0  0  0  0  0  0  0  0  0  0  0
  -74.7641    9.0977   60.2097 C   0  0  0  0  0  0  0  0  0  0  0  0
  -76.0196    9.4367   59.6999 C   0  0  0  0  0  0  0  0  0  0  0  0
  -77.2382    8.8108   59.7502 N   0  0  0  0  0  0  0  0  0  0  0  0
  1  2  1  0
  2  3  1  0
  3  4  1  0
  4  5  1  0
  5  6  2  0
  5  7  1  0
  7  8  1  0
  8  9  1  0
  9 10  2  0
 10 11  1  0
 11 12  2  0
 12 13  1  0
 13 14  2  0
 14 15  1  0
 15 16  2  0
 16 17  1  0
 17  9  1  0
 16 11  1  0
M  END
$$$$
