
     RDKit          3D

 26 29  0  0  0  0  0  0  0  0999 V2000
  -44.1431  -18.1630   22.5014 N   0  0  0  0  0  0  0  0  0  0  0  0
  -44.6919  -17.5788   23.6705 C   0  0  0  0  0  0  0  0  0  0  0  0
  -45.9638  -17.9617   24.0942 C   0  0  0  0  0  0  0  0  0  0  0  0
  -46.5020  -17.3410   25.2078 C   0  0  0  0  0  0  0  0  0  0  0  0
  -45.8782  -16.3652   25.8981 N   0  0  0  0  0  0  0  0  0  0  0  0
  -44.6663  -15.9747   25.4278 C   0  0  0  0  0  0  0  0  0  0  0  0
  -44.0237  -16.5059   24.3071 C   0  0  0  0  0  0  0  0  0  0  0  0
  -42.7838  -16.0641   23.8160 N   0  0  0  0  0  0  0  0  0  0  0  0
  -42.8664  -15.2965   22.5595 C   0  0  0  0  0  0  0  0  0  0  0  0
  -42.8757  -13.7952   22.8259 C   0  0  0  0  0  0  0  0  0  0  0  0
  -41.6811  -13.3807   23.6764 C   0  0  0  0  0  0  0  0  0  0  0  0
  -41.6565  -14.1706   24.9817 C   0  0  0  0  0  0  0  0  0  0  0  0
  -41.7158  -15.6946   24.7695 C   0  0  0  0  0  0  0  0  0  0  0  0
  -40.3860  -16.2907   24.2505 C   0  0  0  0  0  0  0  0  0  0  0  0
  -39.2748  -16.2757   25.3068 C   0  0  0  0  0  0  0  0  0  0  0  0
  -38.0446  -16.9133   24.8378 N   0  0  0  0  0  0  0  0  0  0  0  0
  -37.2155  -16.0113   24.0219 C   0  0  0  0  0  0  0  0  0  0  0  0
  -36.1479  -16.7648   23.2656 C   0  0  0  0  0  0  0  0  0  0  0  0
  -36.5001  -17.9340   22.6298 N   0  0  0  0  0  0  0  0  0  0  0  0
  -35.5529  -18.6055   21.9391 C   0  0  0  0  0  0  0  0  0  0  0  0
  -34.2611  -18.2701   21.7581 N   0  0  0  0  0  0  0  0  0  0  0  0
  -33.9799  -17.1151   22.3780 C   0  0  0  0  0  0  0  0  0  0  0  0
  -32.7754  -16.4750   22.4015 N   0  0  0  0  0  0  0  0  0  0  0  0
  -32.9322  -15.3299   23.1338 C   0  0  0  0  0  0  0  0  0  0  0  0
  -34.1635  -15.1978   23.5815 N   0  0  0  0  0  0  0  0  0  0  0  0
  -34.8296  -16.3155   23.1249 C   0  0  0  0  0  0  0  0  0  0  0  0
  1  2  1  0
  2  3  2  0
  3  4  1  0
  4  5  2  0
  5  6  1  0
  6  7  2  0
  7  8  1  0
  8  9  1  0
  9 10  1  0
 10 11  1  0
 11 12  1  0
 12 13  1  0
 13 14  1  0
 14 15  1  0
 15 16  1  0
 16 17  1  0
 17 18  1  0
 18 19  2  0
 19 20  1  0
 20 21  2  0
 21 22  1  0
 22 23  1  0
 23 24  1  0
 24 25  2  0
 25 26  1  0
  7  2  1  0
 13  8  1  0
 26 18  1  0
 26 22  2  0
M  END
$$$$
