
     RDKit          3D

 26 29  0  0  0  0  0  0  0  0999 V2000
  -55.5567  -19.8567   36.6618 N   0  0  0  0  0  0  0  0  0  0  0  0
  -56.4804  -20.4887   37.5382 C   0  0  0  0  0  0  0  0  0  0  0  0
  -56.5030  -21.8823   37.6071 C   0  0  0  0  0  0  0  0  0  0  0  0
  -57.3222  -22.4845   38.5460 C   0  0  0  0  0  0  0  0  0  0  0  0
  -58.0762  -21.8014   39.4280 N   0  0  0  0  0  0  0  0  0  0  0  0
  -57.9976  -20.4493   39.3789 C   0  0  0  0  0  0  0  0  0  0  0  0
  -57.2134  -19.7228   38.4756 C   0  0  0  0  0  0  0  0  0  0  0  0
  -57.1018  -18.3189   38.4907 N   0  0  0  0  0  0  0  0  0  0  0  0
  -58.3394  -17.5549   38.7518 C   0  0  0  0  0  0  0  0  0  0  0  0
  -58.2549  -16.6858   39.9938 C   0  0  0  0  0  0  0  0  0  0  0  0
  -59.1894  -16.6016   40.7926 O   0  0  0  0  0  0  0  0  0  0  0  0
  -57.0145  -15.8372   40.1511 C   0  0  0  0  0  0  0  0  0  0  0  0
  -55.9200  -16.2831   39.1856 C   0  0  0  0  0  0  0  0  0  0  0  0
  -55.8504  -17.8135   39.0946 C   0  0  0  0  0  0  0  0  0  0  0  0
  -55.6713  -18.2993   40.4215 O   0  0  0  0  0  0  0  0  0  0  0  0
  -54.6821  -19.3144   40.5188 C   0  0  0  0  0  0  0  0  0  0  0  0
  -53.3796  -18.7826   40.1758 N   0  0  0  0  0  0  0  0  0  0  0  0
  -52.5359  -19.5516   39.4552 C   0  0  0  0  0  0  0  0  0  0  0  0
  -51.2812  -19.7994   39.7353 N   0  0  0  0  0  0  0  0  0  0  0  0
  -50.8267  -20.5914   38.7087 C   0  0  0  0  0  0  0  0  0  0  0  0
  -49.5605  -21.1607   38.5095 C   0  0  0  0  0  0  0  0  0  0  0  0
  -49.3459  -21.9312   37.3592 C   0  0  0  0  0  0  0  0  0  0  0  0
  -50.3690  -22.1278   36.4265 C   0  0  0  0  0  0  0  0  0  0  0  0
  -51.6396  -21.5701   36.6105 C   0  0  0  0  0  0  0  0  0  0  0  0
  -51.8267  -20.8107   37.7676 C   0  0  0  0  0  0  0  0  0  0  0  0
  -52.9069  -20.1272   38.2650 N   0  0  0  0  0  0  0  0  0  0  0  0
  1  2  1  0
  2  3  2  0
  3  4  1  0
  4  5  2  0
  5  6  1  0
  6  7  2  0
  7  8  1  0
  8  9  1  0
  9 10  1  0
 10 11  2  0
 10 12  1  0
 12 13  1  0
 13 14  1  0
 14 15  1  0
 15 16  1  0
 16 17  1  0
 17 18  1  0
 18 19  2  0
 19 20  1  0
 20 21  2  0
 21 22  1  0
 22 23  2  0
 23 24  1  0
 24 25  2  0
 25 26  1  0
  7  2  1  0
 14  8  1  0
 26 18  1  0
 25 20  1  0
M  END
$$$$
