
     RDKit          3D

 19 20  0  0  0  0  0  0  0  0999 V2000
   19.5969   12.8159  -12.7229 N   0  0  0  0  0  0  0  0  0  0  0  0
   20.1040   12.2983  -13.9884 C   0  0  0  0  0  0  0  0  0  0  0  0
   20.1340   13.3772  -15.0606 C   0  0  0  0  0  0  0  0  0  0  0  0
   18.7419   13.7577  -15.5208 C   0  0  0  0  0  0  0  0  0  0  0  0
   17.9852   12.9375  -16.0445 O   0  0  0  0  0  0  0  0  0  0  0  0
   18.3133   15.1847  -15.3310 C   0  0  0  0  0  0  0  0  0  0  0  0
   17.8776   15.4918  -13.9252 C   0  0  0  0  0  0  0  0  0  0  0  0
   18.6710   15.9678  -13.1102 O   0  0  0  0  0  0  0  0  0  0  0  0
   16.4473   15.1759  -13.5485 C   0  0  0  0  0  0  0  0  0  0  0  0
   16.3553   13.8701  -12.7734 C   0  0  0  0  0  0  0  0  0  0  0  0
   14.9350   13.4836  -12.5087 C   0  0  0  0  0  0  0  0  0  0  0  0
   14.1884   13.8035  -11.3920 C   0  0  0  0  0  0  0  0  0  0  0  0
   12.9381   13.2672  -11.5436 N   0  0  0  0  0  0  0  0  0  0  0  0
   12.8464   12.6022  -12.7438 C   0  0  0  0  0  0  0  0  0  0  0  0
   11.7695   11.9132  -13.3147 C   0  0  0  0  0  0  0  0  0  0  0  0
   11.9686   11.3229  -14.5664 C   0  0  0  0  0  0  0  0  0  0  0  0
   13.1958   11.4190  -15.2180 C   0  0  0  0  0  0  0  0  0  0  0  0
   14.2620   12.1118  -14.6330 C   0  0  0  0  0  0  0  0  0  0  0  0
   14.0869   12.7167  -13.3712 C   0  0  0  0  0  0  0  0  0  0  0  0
  1  2  1  0
  2  3  1  0
  3  4  1  0
  4  5  2  0
  4  6  1  0
  6  7  1  0
  7  8  2  0
  7  9  1  0
  9 10  1  0
 10 11  1  0
 11 12  2  0
 12 13  1  0
 13 14  1  0
 14 15  2  0
 15 16  1  0
 16 17  2  0
 17 18  1  0
 18 19  2  0
 19 11  1  0
 19 14  1  0
M  END
$$$$
