
     RDKit          3D

 16 17  0  0  0  0  0  0  0  0999 V2000
  -42.6670  -35.9949    7.3686 N   0  0  0  0  0  0  0  0  0  0  0  0
  -41.9760  -37.0018    6.7503 C   0  0  0  0  0  0  0  0  0  0  0  0
  -41.2776  -36.7910    5.7694 O   0  0  0  0  0  0  0  0  0  0  0  0
  -42.1483  -38.3502    7.3400 C   0  0  0  0  0  0  0  0  0  0  0  0
  -43.4717  -38.8309    7.4142 C   0  0  0  0  0  0  0  0  0  0  0  0
  -43.7286  -40.1160    7.8854 C   0  0  0  0  0  0  0  0  0  0  0  0
  -42.6657  -40.9185    8.2702 C   0  0  0  0  0  0  0  0  0  0  0  0
  -42.9055  -42.1576    8.7184 F   0  0  0  0  0  0  0  0  0  0  0  0
  -41.3552  -40.4557    8.1986 C   0  0  0  0  0  0  0  0  0  0  0  0
  -41.0612  -39.1563    7.7430 C   0  0  0  0  0  0  0  0  0  0  0  0
  -39.7044  -38.7959    7.7445 N   0  0  0  0  0  0  0  0  0  0  0  0
  -39.3369  -37.4970    8.3082 C   0  0  0  0  0  0  0  0  0  0  0  0
  -37.8590  -37.5436    8.7067 C   0  0  0  0  0  0  0  0  0  0  0  0
  -36.9791  -38.2385    7.6611 C   0  0  0  0  0  0  0  0  0  0  0  0
  -37.6975  -38.4050    6.3264 C   0  0  0  0  0  0  0  0  0  0  0  0
  -39.0228  -39.1579    6.4866 C   0  0  0  0  0  0  0  0  0  0  0  0
  1  2  1  0
  2  3  2  0
  2  4  1  0
  4  5  2  0
  5  6  1  0
  6  7  2  0
  7  8  1  0
  7  9  1  0
  9 10  2  0
 10 11  1  0
 11 12  1  0
 12 13  1  0
 13 14  1  0
 14 15  1  0
 15 16  1  0
 10  4  1  0
 16 11  1  0
M  END
$$$$
