
     RDKit          3D

 28 31  0  0  0  0  0  0  0  0999 V2000
  -20.3163    3.9895   15.4577 N   0  0  0  0  0  0  0  0  0  0  0  0
  -19.2066    2.8793   14.8241 S   0  0  0  0  0  0  0  0  0  0  0  0
  -17.9938    3.1339   15.5671 O   0  0  0  0  0  0  0  0  0  0  0  0
  -19.9262    1.6271   14.8795 O   0  0  0  0  0  0  0  0  0  0  0  0
  -18.9838    3.3873   13.1464 C   0  0  0  0  0  0  0  0  0  0  0  0
  -19.4844    4.6312   12.7422 C   0  0  0  0  0  0  0  0  0  0  0  0
  -19.3966    4.9688   11.4066 C   0  0  0  0  0  0  0  0  0  0  0  0
  -18.8625    4.1627   10.4722 N   0  0  0  0  0  0  0  0  0  0  0  0
  -18.3797    2.9711   10.9020 C   0  0  0  0  0  0  0  0  0  0  0  0
  -18.3870    2.5151   12.2243 C   0  0  0  0  0  0  0  0  0  0  0  0
  -17.8294    1.2908   12.5940 N   0  0  0  0  0  0  0  0  0  0  0  0
  -18.1810    0.1199   11.7812 C   0  0  0  0  0  0  0  0  0  0  0  0
  -17.9472   -1.1525   12.5946 C   0  0  0  0  0  0  0  0  0  0  0  0
  -16.5340   -1.2091   13.1708 C   0  0  0  0  0  0  0  0  0  0  0  0
  -16.2181    0.0631   13.9573 C   0  0  0  0  0  0  0  0  0  0  0  0
  -16.4341    1.3382   13.1179 C   0  0  0  0  0  0  0  0  0  0  0  0
  -15.3774    1.5266   11.9853 C   0  0  0  0  0  0  0  0  0  0  0  0
  -13.9949    1.5881   12.4723 N   0  0  0  0  0  0  0  0  0  0  0  0
  -13.0652    1.8863   11.3851 C   0  0  0  0  0  0  0  0  0  0  0  0
  -11.6758    1.7939   11.9273 C   0  0  0  0  0  0  0  0  0  0  0  0
  -10.8182    0.7140   11.8141 C   0  0  0  0  0  0  0  0  0  0  0  0
   -9.6386    1.0330   12.4310 N   0  0  0  0  0  0  0  0  0  0  0  0
   -9.7001    2.3041   12.9507 C   0  0  0  0  0  0  0  0  0  0  0  0
   -8.7386    3.0387   13.6554 C   0  0  0  0  0  0  0  0  0  0  0  0
   -9.0863    4.3259   14.0759 C   0  0  0  0  0  0  0  0  0  0  0  0
  -10.3461    4.8534   13.8035 C   0  0  0  0  0  0  0  0  0  0  0  0
  -11.2944    4.1051   13.0969 C   0  0  0  0  0  0  0  0  0  0  0  0
  -10.9683    2.8056   12.6568 C   0  0  0  0  0  0  0  0  0  0  0  0
  1  2  1  0
  2  3  2  0
  2  4  2  0
  2  5  1  0
  5  6  2  0
  6  7  1  0
  7  8  2  0
  8  9  1  0
  9 10  2  0
 10 11  1  0
 11 12  1  0
 12 13  1  0
 13 14  1  0
 14 15  1  0
 15 16  1  0
 16 17  1  0
 17 18  1  0
 18 19  1  0
 19 20  1  0
 20 21  2  0
 21 22  1  0
 22 23  1  0
 23 24  2  0
 24 25  1  0
 25 26  2  0
 26 27  1  0
 27 28  2  0
 10  5  1  0
 16 11  1  0
 28 20  1  0
 28 23  1  0
M  END
$$$$
