
     RDKit          3D

 17 18  0  0  0  0  0  0  0  0999 V2000
    3.8811    7.0802   -3.2967 C   0  0  0  0  0  0  0  0  0  0  0  0
    3.1976    8.2925   -3.0055 O   0  0  0  0  0  0  0  0  0  0  0  0
    3.9733    9.3774   -2.7047 C   0  0  0  0  0  0  0  0  0  0  0  0
    3.2723   10.5466   -2.4452 C   0  0  0  0  0  0  0  0  0  0  0  0
    3.9521   11.7222   -2.1199 C   0  0  0  0  0  0  0  0  0  0  0  0
    5.3571   11.7658   -2.0322 C   0  0  0  0  0  0  0  0  0  0  0  0
    6.0479   13.0642   -1.6549 C   0  0  0  0  0  0  0  0  0  0  0  0
    5.2741   14.0859   -0.7975 C   0  0  0  0  0  0  0  0  0  0  0  0
    4.3656   14.9320   -1.5734 N   0  0  0  0  0  0  0  0  0  0  0  0
    6.0790   10.5867   -2.3314 C   0  0  0  0  0  0  0  0  0  0  0  0
    7.4749   10.4551   -2.3401 N   0  0  0  0  0  0  0  0  0  0  0  0
    8.2432   11.3581   -3.1973 C   0  0  0  0  0  0  0  0  0  0  0  0
    9.6183   10.7387   -3.4540 C   0  0  0  0  0  0  0  0  0  0  0  0
   10.3280   10.4162   -2.1384 C   0  0  0  0  0  0  0  0  0  0  0  0
    9.4519    9.5383   -1.2445 C   0  0  0  0  0  0  0  0  0  0  0  0
    8.0678   10.1553   -1.0333 C   0  0  0  0  0  0  0  0  0  0  0  0
    5.3646    9.4071   -2.6468 C   0  0  0  0  0  0  0  0  0  0  0  0
  1  2  1  0
  2  3  1  0
  3  4  2  0
  4  5  1  0
  5  6  2  0
  6  7  1  0
  7  8  1  0
  8  9  1  0
  6 10  1  0
 10 11  1  0
 11 12  1  0
 12 13  1  0
 13 14  1  0
 14 15  1  0
 15 16  1  0
 10 17  2  0
 17  3  1  0
 16 11  1  0
M  END
$$$$
