
     RDKit          3D

 18 19  0  0  0  0  0  0  0  0999 V2000
   29.5036   16.2459   27.0286 C   0  0  0  0  0  0  0  0  0  0  0  0
   28.7819   16.7231   28.1990 N   0  0  0  0  0  0  0  0  0  0  0  0
   27.5960   15.9197   28.5034 C   0  0  0  0  0  0  0  0  0  0  0  0
   26.4178   16.2061   27.5656 C   0  0  0  0  0  0  0  0  0  0  0  0
   25.1818   15.3484   27.8643 C   0  0  0  0  0  0  0  0  0  0  0  0
   24.5137   15.6870   29.1997 C   0  0  0  0  0  0  0  0  0  0  0  0
   23.2767   14.8318   29.4940 C   0  0  0  0  0  0  0  0  0  0  0  0
   22.1059   15.1044   28.5470 C   0  0  0  0  0  0  0  0  0  0  0  0
   20.8633   14.3149   28.9644 C   0  0  0  0  0  0  0  0  0  0  0  0
   19.7166   14.5720   28.0296 C   0  0  0  0  0  0  0  0  0  0  0  0
   19.5790   13.7560   26.9390 N   0  0  0  0  0  0  0  0  0  0  0  0
   18.5601   13.9871   26.0807 C   0  0  0  0  0  0  0  0  0  0  0  0
   17.6211   14.9521   26.1433 N   0  0  0  0  0  0  0  0  0  0  0  0
   17.8091   15.7239   27.2231 C   0  0  0  0  0  0  0  0  0  0  0  0
   17.0567   16.7967   27.6025 N   0  0  0  0  0  0  0  0  0  0  0  0
   17.6004   17.2937   28.7554 C   0  0  0  0  0  0  0  0  0  0  0  0
   18.6544   16.6038   29.1385 N   0  0  0  0  0  0  0  0  0  0  0  0
   18.7961   15.6155   28.1887 C   0  0  0  0  0  0  0  0  0  0  0  0
  1  2  1  0
  2  3  1  0
  3  4  1  0
  4  5  1  0
  5  6  1  0
  6  7  1  0
  7  8  1  0
  8  9  1  0
  9 10  1  0
 10 11  2  0
 11 12  1  0
 12 13  2  0
 13 14  1  0
 14 15  1  0
 15 16  1  0
 16 17  2  0
 17 18  1  0
 18 10  1  0
 18 14  2  0
M  END
$$$$
