
     RDKit          3D

 18 19  0  0  0  0  0  0  0  0999 V2000
   52.8236    1.0088  -32.4851 N   0  0  0  0  0  0  0  0  0  0  0  0
   52.0030   -0.0334  -33.0913 C   0  0  0  0  0  0  0  0  0  0  0  0
   52.1057   -1.3249  -32.2784 C   0  0  0  0  0  0  0  0  0  0  0  0
   51.3588   -2.4881  -32.9301 C   0  0  0  0  0  0  0  0  0  0  0  0
   49.8439   -2.3756  -32.8583 C   0  0  0  0  0  0  0  0  0  0  0  0
   49.2752   -1.4664  -32.2554 O   0  0  0  0  0  0  0  0  0  0  0  0
   49.0688   -3.4739  -33.5737 C   0  0  0  0  0  0  0  0  0  0  0  0
   47.5553   -3.3070  -33.4556 C   0  0  0  0  0  0  0  0  0  0  0  0
   47.0268   -2.1665  -34.3306 C   0  0  0  0  0  0  0  0  0  0  0  0
   45.5984   -1.8780  -34.0274 C   0  0  0  0  0  0  0  0  0  0  0  0
   44.5437   -2.3551  -34.6545 N   0  0  0  0  0  0  0  0  0  0  0  0
   43.4578   -1.8093  -34.0130 C   0  0  0  0  0  0  0  0  0  0  0  0
   42.0887   -1.9763  -34.2655 C   0  0  0  0  0  0  0  0  0  0  0  0
   41.1681   -1.3003  -33.4543 C   0  0  0  0  0  0  0  0  0  0  0  0
   41.6023   -0.4753  -32.4133 C   0  0  0  0  0  0  0  0  0  0  0  0
   42.9649   -0.2962  -32.1461 C   0  0  0  0  0  0  0  0  0  0  0  0
   43.8596   -0.9815  -32.9706 C   0  0  0  0  0  0  0  0  0  0  0  0
   45.2284   -1.0421  -33.0014 N   0  0  0  0  0  0  0  0  0  0  0  0
  1  2  1  0
  2  3  1  0
  3  4  1  0
  4  5  1  0
  5  6  2  0
  5  7  1  0
  7  8  1  0
  8  9  1  0
  9 10  1  0
 10 11  2  0
 11 12  1  0
 12 13  2  0
 13 14  1  0
 14 15  2  0
 15 16  1  0
 16 17  2  0
 17 18  1  0
 18 10  1  0
 17 12  1  0
M  END
$$$$
