
     RDKit          3D

 19 20  0  0  0  0  0  0  0  0999 V2000
  -11.0552    9.6486    0.9088 N   0  0  0  0  0  0  0  0  0  0  0  0
  -10.5482    9.1309   -0.3567 C   0  0  0  0  0  0  0  0  0  0  0  0
  -10.5182   10.2099   -1.4289 C   0  0  0  0  0  0  0  0  0  0  0  0
  -11.9102   10.5903   -1.8891 C   0  0  0  0  0  0  0  0  0  0  0  0
  -12.6670    9.7701   -2.4128 O   0  0  0  0  0  0  0  0  0  0  0  0
  -12.3389   12.0173   -1.6992 C   0  0  0  0  0  0  0  0  0  0  0  0
  -12.7746   12.3244   -0.2935 C   0  0  0  0  0  0  0  0  0  0  0  0
  -11.9811   12.8005    0.5215 O   0  0  0  0  0  0  0  0  0  0  0  0
  -14.2048   12.0085    0.0832 C   0  0  0  0  0  0  0  0  0  0  0  0
  -14.2969   10.7027    0.8583 C   0  0  0  0  0  0  0  0  0  0  0  0
  -15.7171   10.3162    1.1230 C   0  0  0  0  0  0  0  0  0  0  0  0
  -16.4638   10.6362    2.2397 C   0  0  0  0  0  0  0  0  0  0  0  0
  -17.7141   10.0999    2.0881 N   0  0  0  0  0  0  0  0  0  0  0  0
  -17.8058    9.4348    0.8879 C   0  0  0  0  0  0  0  0  0  0  0  0
  -18.8827    8.7459    0.3170 C   0  0  0  0  0  0  0  0  0  0  0  0
  -18.6835    8.1555   -0.9347 C   0  0  0  0  0  0  0  0  0  0  0  0
  -17.4563    8.2516   -1.5863 C   0  0  0  0  0  0  0  0  0  0  0  0
  -16.3901    8.9444   -1.0013 C   0  0  0  0  0  0  0  0  0  0  0  0
  -16.5653    9.5494    0.2605 C   0  0  0  0  0  0  0  0  0  0  0  0
  1  2  1  0
  2  3  1  0
  3  4  1  0
  4  5  2  0
  4  6  1  0
  6  7  1  0
  7  8  2  0
  7  9  1  0
  9 10  1  0
 10 11  1  0
 11 12  2  0
 12 13  1  0
 13 14  1  0
 14 15  2  0
 15 16  1  0
 16 17  2  0
 17 18  1  0
 18 19  2  0
 19 11  1  0
 19 14  1  0
M  END
$$$$
