
     RDKit          3D

 18 19  0  0  0  0  0  0  0  0999 V2000
  -10.5555   -3.4123   16.3361 N   0  0  0  0  0  0  0  0  0  0  0  0
  -11.3762   -4.4545   15.7299 C   0  0  0  0  0  0  0  0  0  0  0  0
  -11.2735   -5.7460   16.5429 C   0  0  0  0  0  0  0  0  0  0  0  0
  -12.0203   -6.9093   15.8912 C   0  0  0  0  0  0  0  0  0  0  0  0
  -13.5352   -6.7967   15.9629 C   0  0  0  0  0  0  0  0  0  0  0  0
  -14.1040   -5.8875   16.5659 O   0  0  0  0  0  0  0  0  0  0  0  0
  -14.3103   -7.8950   15.2476 C   0  0  0  0  0  0  0  0  0  0  0  0
  -15.8238   -7.7281   15.3657 C   0  0  0  0  0  0  0  0  0  0  0  0
  -16.3523   -6.5877   14.4907 C   0  0  0  0  0  0  0  0  0  0  0  0
  -17.7807   -6.2991   14.7938 C   0  0  0  0  0  0  0  0  0  0  0  0
  -18.8355   -6.7762   14.1668 N   0  0  0  0  0  0  0  0  0  0  0  0
  -19.9213   -6.2304   14.8082 C   0  0  0  0  0  0  0  0  0  0  0  0
  -21.2905   -6.3975   14.5557 C   0  0  0  0  0  0  0  0  0  0  0  0
  -22.2111   -5.7214   15.3670 C   0  0  0  0  0  0  0  0  0  0  0  0
  -21.7768   -4.8964   16.4080 C   0  0  0  0  0  0  0  0  0  0  0  0
  -20.4142   -4.7173   16.6752 C   0  0  0  0  0  0  0  0  0  0  0  0
  -19.5195   -5.4026   15.8507 C   0  0  0  0  0  0  0  0  0  0  0  0
  -18.1507   -5.4632   15.8199 N   0  0  0  0  0  0  0  0  0  0  0  0
  1  2  1  0
  2  3  1  0
  3  4  1  0
  4  5  1  0
  5  6  2  0
  5  7  1  0
  7  8  1  0
  8  9  1  0
  9 10  1  0
 10 11  2  0
 11 12  1  0
 12 13  2  0
 13 14  1  0
 14 15  2  0
 15 16  1  0
 16 17  2  0
 17 18  1  0
 18 10  1  0
 17 12  1  0
M  END
$$$$
