
     RDKit          3D

 29 32  0  0  0  0  0  0  0  0999 V2000
  -18.0607   11.2024   10.9226 N   0  0  0  0  0  0  0  0  0  0  0  0
  -18.3616   11.1199    9.4915 C   0  0  0  0  0  0  0  0  0  0  0  0
  -18.3469   12.4839    8.8333 C   0  0  0  0  0  0  0  0  0  0  0  0
  -19.4113   13.3645    9.1331 C   0  0  0  0  0  0  0  0  0  0  0  0
  -19.5039   14.6173    8.5332 C   0  0  0  0  0  0  0  0  0  0  0  0
  -18.5275   14.9978    7.6209 C   0  0  0  0  0  0  0  0  0  0  0  0
  -18.6166   16.5758    6.8241 S   0  0  0  0  0  0  0  0  0  0  0  0
  -17.4233   17.4395    7.6388 N   0  0  0  0  0  0  0  0  0  0  0  0
  -19.8636   17.2080    7.1903 O   0  0  0  0  0  0  0  0  0  0  0  0
  -18.1985   16.4154    5.4526 O   0  0  0  0  0  0  0  0  0  0  0  0
  -17.4725   14.1379    7.2995 C   0  0  0  0  0  0  0  0  0  0  0  0
  -17.3529   12.8730    7.9040 C   0  0  0  0  0  0  0  0  0  0  0  0
  -16.2755   12.0382    7.5916 N   0  0  0  0  0  0  0  0  0  0  0  0
  -15.8497   11.9830    6.1879 C   0  0  0  0  0  0  0  0  0  0  0  0
  -15.2674   10.5985    5.8967 C   0  0  0  0  0  0  0  0  0  0  0  0
  -14.4263   10.0472    7.0486 C   0  0  0  0  0  0  0  0  0  0  0  0
  -13.9740   11.1574    7.9887 C   0  0  0  0  0  0  0  0  0  0  0  0
  -15.1790   11.9079    8.6040 C   0  0  0  0  0  0  0  0  0  0  0  0
  -14.7329   13.2633    9.2203 C   0  0  0  0  0  0  0  0  0  0  0  0
  -13.7919   13.0967   10.3280 N   0  0  0  0  0  0  0  0  0  0  0  0
  -12.4775   13.2874   10.1155 C   0  0  0  0  0  0  0  0  0  0  0  0
  -11.8744   13.7255    9.0372 N   0  0  0  0  0  0  0  0  0  0  0  0
  -10.5339   13.7242    9.3362 C   0  0  0  0  0  0  0  0  0  0  0  0
   -9.4364   14.0940    8.5459 C   0  0  0  0  0  0  0  0  0  0  0  0
   -8.1513   13.9987    9.0954 C   0  0  0  0  0  0  0  0  0  0  0  0
   -7.9636   13.5455   10.4040 C   0  0  0  0  0  0  0  0  0  0  0  0
   -9.0471   13.1720   11.2082 C   0  0  0  0  0  0  0  0  0  0  0  0
  -10.3152   13.2763   10.6338 C   0  0  0  0  0  0  0  0  0  0  0  0
  -11.5735   13.0083   11.1064 N   0  0  0  0  0  0  0  0  0  0  0  0
  1  2  1  0
  2  3  1  0
  3  4  2  0
  4  5  1  0
  5  6  2  0
  6  7  1  0
  7  8  1  0
  7  9  2  0
  7 10  2  0
  6 11  1  0
 11 12  2  0
 12 13  1  0
 13 14  1  0
 14 15  1  0
 15 16  1  0
 16 17  1  0
 17 18  1  0
 18 19  1  0
 19 20  1  0
 20 21  1  0
 21 22  2  0
 22 23  1  0
 23 24  2  0
 24 25  1  0
 25 26  2  0
 26 27  1  0
 27 28  2  0
 28 29  1  0
 12  3  1  0
 18 13  1  0
 29 21  1  0
 28 23  1  0
M  END
$$$$
