
     RDKit          3D

 23 25  0  0  0  0  0  0  0  0999 V2000
    5.8015   -7.3061  -34.2291 N   0  0  0  0  0  0  0  0  0  0  0  0
    6.2248   -8.0263  -33.1437 C   0  0  0  0  0  0  0  0  0  0  0  0
    6.7274   -9.1371  -33.2799 O   0  0  0  0  0  0  0  0  0  0  0  0
    5.9924   -7.4443  -31.7860 C   0  0  0  0  0  0  0  0  0  0  0  0
    5.8783   -8.3862  -30.7395 C   0  0  0  0  0  0  0  0  0  0  0  0
    5.6460   -7.9760  -29.4283 C   0  0  0  0  0  0  0  0  0  0  0  0
    5.5298   -6.6211  -29.1588 C   0  0  0  0  0  0  0  0  0  0  0  0
    5.3179   -6.2146  -27.8999 F   0  0  0  0  0  0  0  0  0  0  0  0
    5.6542   -5.6694  -30.1705 C   0  0  0  0  0  0  0  0  0  0  0  0
    5.8946   -6.0548  -31.5072 C   0  0  0  0  0  0  0  0  0  0  0  0
    6.0647   -5.0720  -32.5234 N   0  0  0  0  0  0  0  0  0  0  0  0
    4.8450   -4.2150  -32.6111 C   0  0  0  0  0  0  0  0  0  0  0  0
    4.9469   -3.2267  -33.7599 C   0  0  0  0  0  0  0  0  0  0  0  0
    3.9780   -2.9575  -34.4715 O   0  0  0  0  0  0  0  0  0  0  0  0
    6.2462   -2.4676  -33.8662 C   0  0  0  0  0  0  0  0  0  0  0  0
    7.4207   -3.4239  -33.7180 C   0  0  0  0  0  0  0  0  0  0  0  0
    7.3321   -4.2824  -32.4173 C   0  0  0  0  0  0  0  0  0  0  0  0
    8.6819   -4.8459  -32.2121 N   0  0  0  0  0  0  0  0  0  0  0  0
    9.1031   -5.8637  -33.1814 C   0  0  0  0  0  0  0  0  0  0  0  0
   10.6095   -6.1371  -33.0604 C   0  0  0  0  0  0  0  0  0  0  0  0
   11.0115   -6.5056  -31.6361 C   0  0  0  0  0  0  0  0  0  0  0  0
   10.4558   -5.4926  -30.6384 C   0  0  0  0  0  0  0  0  0  0  0  0
    8.9526   -5.2903  -30.8442 C   0  0  0  0  0  0  0  0  0  0  0  0
  1  2  1  0
  2  3  2  0
  2  4  1  0
  4  5  2  0
  5  6  1  0
  6  7  2  0
  7  8  1  0
  7  9  1  0
  9 10  2  0
 10 11  1  0
 11 12  1  0
 12 13  1  0
 13 14  2  0
 13 15  1  0
 15 16  1  0
 16 17  1  0
 17 18  1  0
 18 19  1  0
 19 20  1  0
 20 21  1  0
 21 22  1  0
 22 23  1  0
 10  4  1  0
 17 11  1  0
 23 18  1  0
M  END
$$$$
