
     RDKit          3D

 29 32  0  0  0  0  0  0  0  0999 V2000
   43.7404    4.1265  -26.7290 N   0  0  0  0  0  0  0  0  0  0  0  0
   44.0557    5.4412  -26.5377 C   0  0  0  0  0  0  0  0  0  0  0  0
   45.1371    5.7495  -26.0279 O   0  0  0  0  0  0  0  0  0  0  0  0
   43.0721    6.4719  -26.9976 C   0  0  0  0  0  0  0  0  0  0  0  0
   43.4518    7.8013  -26.7343 C   0  0  0  0  0  0  0  0  0  0  0  0
   42.6574    8.8350  -27.1925 C   0  0  0  0  0  0  0  0  0  0  0  0
   41.5306    8.6399  -27.9018 N   0  0  0  0  0  0  0  0  0  0  0  0
   41.1888    7.3514  -28.1511 C   0  0  0  0  0  0  0  0  0  0  0  0
   41.8807    6.2092  -27.7116 C   0  0  0  0  0  0  0  0  0  0  0  0
   41.4150    4.9083  -28.0072 N   0  0  0  0  0  0  0  0  0  0  0  0
   41.0731    4.7050  -29.4352 C   0  0  0  0  0  0  0  0  0  0  0  0
   40.9786    3.2208  -29.7473 C   0  0  0  0  0  0  0  0  0  0  0  0
   40.9341    2.8044  -30.9075 O   0  0  0  0  0  0  0  0  0  0  0  0
   40.8788    2.2862  -28.5557 C   0  0  0  0  0  0  0  0  0  0  0  0
   39.9558    2.9277  -27.5306 C   0  0  0  0  0  0  0  0  0  0  0  0
   40.4608    4.3019  -27.0159 C   0  0  0  0  0  0  0  0  0  0  0  0
   39.2554    5.1889  -26.5691 C   0  0  0  0  0  0  0  0  0  0  0  0
   38.3728    5.6131  -27.6667 N   0  0  0  0  0  0  0  0  0  0  0  0
   37.0050    5.0931  -27.5623 C   0  0  0  0  0  0  0  0  0  0  0  0
   36.1506    5.7573  -26.4674 C   0  0  0  0  0  0  0  0  0  0  0  0
   34.7215    5.3243  -26.5592 C   0  0  0  0  0  0  0  0  0  0  0  0
   34.2056    4.1212  -26.1300 C   0  0  0  0  0  0  0  0  0  0  0  0
   32.8764    4.0839  -26.4542 N   0  0  0  0  0  0  0  0  0  0  0  0
   32.5045    5.2467  -27.0799 C   0  0  0  0  0  0  0  0  0  0  0  0
   31.2597    5.6355  -27.5898 C   0  0  0  0  0  0  0  0  0  0  0  0
   31.1737    6.9017  -28.1882 C   0  0  0  0  0  0  0  0  0  0  0  0
   32.2838    7.7392  -28.2575 C   0  0  0  0  0  0  0  0  0  0  0  0
   33.5200    7.3290  -27.7435 C   0  0  0  0  0  0  0  0  0  0  0  0
   33.6389    6.0577  -27.1455 C   0  0  0  0  0  0  0  0  0  0  0  0
  1  2  1  0
  2  3  2  0
  2  4  1  0
  4  5  2  0
  5  6  1  0
  6  7  2  0
  7  8  1  0
  8  9  2  0
  9 10  1  0
 10 11  1  0
 11 12  1  0
 12 13  2  0
 12 14  1  0
 14 15  1  0
 15 16  1  0
 16 17  1  0
 17 18  1  0
 18 19  1  0
 19 20  1  0
 20 21  1  0
 21 22  2  0
 22 23  1  0
 23 24  1  0
 24 25  2  0
 25 26  1  0
 26 27  2  0
 27 28  1  0
 28 29  2  0
  9  4  1  0
 16 10  1  0
 29 21  1  0
 29 24  1  0
M  END
$$$$
