
     RDKit          3D

 19 20  0  0  0  0  0  0  0  0999 V2000
   73.1950    4.5538  -32.7022 N   0  0  0  0  0  0  0  0  0  0  0  0
   72.5557    5.8686  -32.7138 C   0  0  0  0  0  0  0  0  0  0  0  0
   71.9057    6.2156  -31.3817 C   0  0  0  0  0  0  0  0  0  0  0  0
   70.5765    5.5143  -31.1889 C   0  0  0  0  0  0  0  0  0  0  0  0
   70.4185    4.6974  -30.2784 O   0  0  0  0  0  0  0  0  0  0  0  0
   69.4632    5.8435  -32.1691 C   0  0  0  0  0  0  0  0  0  0  0  0
   68.0858    5.6490  -31.5497 C   0  0  0  0  0  0  0  0  0  0  0  0
   67.8161    6.6454  -30.4357 C   0  0  0  0  0  0  0  0  0  0  0  0
   68.5496    7.6187  -30.2477 O   0  0  0  0  0  0  0  0  0  0  0  0
   66.5822    6.4006  -29.5873 C   0  0  0  0  0  0  0  0  0  0  0  0
   65.3319    6.6842  -30.3490 C   0  0  0  0  0  0  0  0  0  0  0  0
   64.7924    7.9313  -30.5906 C   0  0  0  0  0  0  0  0  0  0  0  0
   63.6527    7.7721  -31.3301 N   0  0  0  0  0  0  0  0  0  0  0  0
   63.4393    6.4436  -31.5933 C   0  0  0  0  0  0  0  0  0  0  0  0
   62.4140    5.8251  -32.3185 C   0  0  0  0  0  0  0  0  0  0  0  0
   62.4486    4.4294  -32.4335 C   0  0  0  0  0  0  0  0  0  0  0  0
   63.4686    3.6891  -31.8446 C   0  0  0  0  0  0  0  0  0  0  0  0
   64.4833    4.3237  -31.1176 C   0  0  0  0  0  0  0  0  0  0  0  0
   64.4729    5.7311  -30.9873 C   0  0  0  0  0  0  0  0  0  0  0  0
  1  2  1  0
  2  3  1  0
  3  4  1  0
  4  5  2  0
  4  6  1  0
  6  7  1  0
  7  8  1  0
  8  9  2  0
  8 10  1  0
 10 11  1  0
 11 12  2  0
 12 13  1  0
 13 14  1  0
 14 15  2  0
 15 16  1  0
 16 17  2  0
 17 18  1  0
 18 19  2  0
 19 11  1  0
 19 14  1  0
M  END
$$$$
