
     RDKit          3D

 19 20  0  0  0  0  0  0  0  0999 V2000
    8.7523   10.3984    1.7745 N   0  0  0  0  0  0  0  0  0  0  0  0
    8.1130   11.7133    1.7628 C   0  0  0  0  0  0  0  0  0  0  0  0
    7.4630   12.0603    3.0950 C   0  0  0  0  0  0  0  0  0  0  0  0
    6.1338   11.3589    3.2878 C   0  0  0  0  0  0  0  0  0  0  0  0
    5.9758   10.5420    4.1983 O   0  0  0  0  0  0  0  0  0  0  0  0
    5.0205   11.6881    2.3076 C   0  0  0  0  0  0  0  0  0  0  0  0
    3.6431   11.4936    2.9270 C   0  0  0  0  0  0  0  0  0  0  0  0
    3.3734   12.4901    4.0409 C   0  0  0  0  0  0  0  0  0  0  0  0
    4.1069   13.4633    4.2290 O   0  0  0  0  0  0  0  0  0  0  0  0
    2.1395   12.2452    4.8894 C   0  0  0  0  0  0  0  0  0  0  0  0
    0.8892   12.5288    4.1277 C   0  0  0  0  0  0  0  0  0  0  0  0
    0.3497   13.7760    3.8861 C   0  0  0  0  0  0  0  0  0  0  0  0
   -0.7900   13.6168    3.1466 N   0  0  0  0  0  0  0  0  0  0  0  0
   -1.0034   12.2883    2.8833 C   0  0  0  0  0  0  0  0  0  0  0  0
   -2.0287   11.6697    2.1581 C   0  0  0  0  0  0  0  0  0  0  0  0
   -1.9941   10.2741    2.0432 C   0  0  0  0  0  0  0  0  0  0  0  0
   -0.9741    9.5338    2.6321 C   0  0  0  0  0  0  0  0  0  0  0  0
    0.0406   10.1683    3.3591 C   0  0  0  0  0  0  0  0  0  0  0  0
    0.0302   11.5758    3.4894 C   0  0  0  0  0  0  0  0  0  0  0  0
  1  2  1  0
  2  3  1  0
  3  4  1  0
  4  5  2  0
  4  6  1  0
  6  7  1  0
  7  8  1  0
  8  9  2  0
  8 10  1  0
 10 11  1  0
 11 12  2  0
 12 13  1  0
 13 14  1  0
 14 15  2  0
 15 16  1  0
 16 17  2  0
 17 18  1  0
 18 19  2  0
 19 11  1  0
 19 14  1  0
M  END
$$$$
