
     RDKit          3D

 32 35  0  0  0  0  0  0  0  0999 V2000
    0.8609    2.5218  -14.5176 N   0  0  0  0  0  0  0  0  0  0  0  0
   -0.3284    2.0935  -13.9952 C   0  0  0  0  0  0  0  0  0  0  0  0
   -1.3012    2.8295  -13.9353 O   0  0  0  0  0  0  0  0  0  0  0  0
   -0.3541    0.6956  -13.5140 C   0  0  0  0  0  0  0  0  0  0  0  0
    0.6225    0.3498  -12.5672 C   0  0  0  0  0  0  0  0  0  0  0  0
    0.6470   -0.9438  -12.0873 C   0  0  0  0  0  0  0  0  0  0  0  0
   -0.2154   -1.8939  -12.4870 N   0  0  0  0  0  0  0  0  0  0  0  0
   -1.1510   -1.5260  -13.3964 C   0  0  0  0  0  0  0  0  0  0  0  0
   -1.2972   -0.2490  -13.9544 C   0  0  0  0  0  0  0  0  0  0  0  0
   -2.3198   -0.0605  -14.9027 N   0  0  0  0  0  0  0  0  0  0  0  0
   -1.8423    0.2620  -16.2457 C   0  0  0  0  0  0  0  0  0  0  0  0
   -2.2078   -0.8448  -17.0467 O   0  0  0  0  0  0  0  0  0  0  0  0
   -2.4151    1.5300  -16.8434 C   0  0  0  0  0  0  0  0  0  0  0  0
   -3.9095    1.5481  -16.7111 C   0  0  0  0  0  0  0  0  0  0  0  0
   -4.6057    2.2051  -17.4906 O   0  0  0  0  0  0  0  0  0  0  0  0
   -4.5381    0.7633  -15.5913 C   0  0  0  0  0  0  0  0  0  0  0  0
   -3.5585    0.6260  -14.4212 C   0  0  0  0  0  0  0  0  0  0  0  0
   -4.1894   -0.1595  -13.2425 C   0  0  0  0  0  0  0  0  0  0  0  0
   -5.4446    0.4801  -12.6429 C   0  0  0  0  0  0  0  0  0  0  0  0
   -6.6227    0.1580  -13.4315 N   0  0  0  0  0  0  0  0  0  0  0  0
   -7.4967   -0.8739  -13.0259 C   0  0  0  0  0  0  0  0  0  0  0  0
   -7.0680   -2.0261  -12.3682 C   0  0  0  0  0  0  0  0  0  0  0  0
   -8.0009   -3.0018  -12.0536 C   0  0  0  0  0  0  0  0  0  0  0  0
   -9.3116   -2.9228  -12.3587 N   0  0  0  0  0  0  0  0  0  0  0  0
   -9.7050   -1.8140  -13.0296 C   0  0  0  0  0  0  0  0  0  0  0  0
   -8.8611   -0.7658  -13.4048 C   0  0  0  0  0  0  0  0  0  0  0  0
   -9.2737    0.3827  -14.1348 N   0  0  0  0  0  0  0  0  0  0  0  0
   -9.0358    0.1854  -15.5811 C   0  0  0  0  0  0  0  0  0  0  0  0
   -9.2121    1.5217  -16.3043 C   0  0  0  0  0  0  0  0  0  0  0  0
  -10.5778    2.1403  -16.0091 C   0  0  0  0  0  0  0  0  0  0  0  0
  -10.8223    2.2325  -14.5034 C   0  0  0  0  0  0  0  0  0  0  0  0
  -10.6268    0.8723  -13.8318 C   0  0  0  0  0  0  0  0  0  0  0  0
  1  2  1  0
  2  3  2  0
  2  4  1  0
  4  5  2  0
  5  6  1  0
  6  7  2  0
  7  8  1  0
  8  9  2  0
  9 10  1  0
 10 11  1  0
 11 12  1  0
 11 13  1  0
 13 14  1  0
 14 15  2  0
 14 16  1  0
 16 17  1  0
 17 18  1  0
 18 19  1  0
 19 20  1  0
 20 21  1  0
 21 22  2  0
 22 23  1  0
 23 24  2  0
 24 25  1  0
 25 26  2  0
 26 27  1  0
 27 28  1  0
 28 29  1  0
 29 30  1  0
 30 31  1  0
 31 32  1  0
  9  4  1  0
 17 10  1  0
 26 21  1  0
 32 27  1  0
M  END
$$$$
