
     RDKit          3D

 19 20  0  0  0  0  0  0  0  0999 V2000
   -8.4766   -5.4435   -4.7062 N   0  0  0  0  0  0  0  0  0  0  0  0
   -7.9695   -5.9611   -5.9717 C   0  0  0  0  0  0  0  0  0  0  0  0
   -7.9395   -4.8822   -7.0439 C   0  0  0  0  0  0  0  0  0  0  0  0
   -9.3316   -4.5017   -7.5041 C   0  0  0  0  0  0  0  0  0  0  0  0
  -10.0884   -5.3220   -8.0278 O   0  0  0  0  0  0  0  0  0  0  0  0
   -9.7602   -3.0747   -7.3143 C   0  0  0  0  0  0  0  0  0  0  0  0
  -10.1959   -2.7676   -5.9085 C   0  0  0  0  0  0  0  0  0  0  0  0
   -9.4025   -2.2916   -5.0936 O   0  0  0  0  0  0  0  0  0  0  0  0
  -11.6262   -3.0836   -5.5319 C   0  0  0  0  0  0  0  0  0  0  0  0
  -11.7182   -4.3894   -4.7568 C   0  0  0  0  0  0  0  0  0  0  0  0
  -13.1385   -4.7758   -4.4920 C   0  0  0  0  0  0  0  0  0  0  0  0
  -13.8851   -4.4559   -3.3753 C   0  0  0  0  0  0  0  0  0  0  0  0
  -15.1354   -4.9922   -3.5270 N   0  0  0  0  0  0  0  0  0  0  0  0
  -15.2271   -5.6573   -4.7272 C   0  0  0  0  0  0  0  0  0  0  0  0
  -16.3040   -6.3462   -5.2981 C   0  0  0  0  0  0  0  0  0  0  0  0
  -16.1049   -6.9365   -6.5497 C   0  0  0  0  0  0  0  0  0  0  0  0
  -14.8777   -6.8405   -7.2013 C   0  0  0  0  0  0  0  0  0  0  0  0
  -13.8115   -6.1477   -6.6164 C   0  0  0  0  0  0  0  0  0  0  0  0
  -13.9866   -5.5427   -5.3546 C   0  0  0  0  0  0  0  0  0  0  0  0
  1  2  1  0
  2  3  1  0
  3  4  1  0
  4  5  2  0
  4  6  1  0
  6  7  1  0
  7  8  2  0
  7  9  1  0
  9 10  1  0
 10 11  1  0
 11 12  2  0
 12 13  1  0
 13 14  1  0
 14 15  2  0
 15 16  1  0
 16 17  2  0
 17 18  1  0
 18 19  2  0
 19 11  1  0
 19 14  1  0
M  END
$$$$
