
     RDKit          3D

 23 25  0  0  0  0  0  0  0  0999 V2000
    5.9989  -35.9629  -22.3734 N   0  0  0  0  0  0  0  0  0  0  0  0
    6.4222  -36.6832  -21.2880 C   0  0  0  0  0  0  0  0  0  0  0  0
    6.9247  -37.7939  -21.4242 O   0  0  0  0  0  0  0  0  0  0  0  0
    6.1898  -36.1011  -19.9303 C   0  0  0  0  0  0  0  0  0  0  0  0
    6.0756  -37.0431  -18.8838 C   0  0  0  0  0  0  0  0  0  0  0  0
    5.8434  -36.6329  -17.5726 C   0  0  0  0  0  0  0  0  0  0  0  0
    5.7271  -35.2780  -17.3031 C   0  0  0  0  0  0  0  0  0  0  0  0
    5.5152  -34.8715  -16.0442 F   0  0  0  0  0  0  0  0  0  0  0  0
    5.8516  -34.3263  -18.3149 C   0  0  0  0  0  0  0  0  0  0  0  0
    6.0919  -34.7117  -19.6516 C   0  0  0  0  0  0  0  0  0  0  0  0
    6.2620  -33.7288  -20.6677 N   0  0  0  0  0  0  0  0  0  0  0  0
    5.0423  -32.8719  -20.7555 C   0  0  0  0  0  0  0  0  0  0  0  0
    5.1442  -31.8836  -21.9043 C   0  0  0  0  0  0  0  0  0  0  0  0
    4.1754  -31.6143  -22.6159 O   0  0  0  0  0  0  0  0  0  0  0  0
    6.4435  -31.1245  -22.0106 C   0  0  0  0  0  0  0  0  0  0  0  0
    7.6181  -32.0808  -21.8624 C   0  0  0  0  0  0  0  0  0  0  0  0
    7.5294  -32.9393  -20.5617 C   0  0  0  0  0  0  0  0  0  0  0  0
    8.8793  -33.5028  -20.3564 N   0  0  0  0  0  0  0  0  0  0  0  0
    9.3005  -34.5205  -21.3257 C   0  0  0  0  0  0  0  0  0  0  0  0
   10.8068  -34.7940  -21.2047 C   0  0  0  0  0  0  0  0  0  0  0  0
   11.2088  -35.1625  -19.7804 C   0  0  0  0  0  0  0  0  0  0  0  0
   10.6532  -34.1494  -18.7827 C   0  0  0  0  0  0  0  0  0  0  0  0
    9.1500  -33.9472  -18.9885 C   0  0  0  0  0  0  0  0  0  0  0  0
  1  2  1  0
  2  3  2  0
  2  4  1  0
  4  5  2  0
  5  6  1  0
  6  7  2  0
  7  8  1  0
  7  9  1  0
  9 10  2  0
 10 11  1  0
 11 12  1  0
 12 13  1  0
 13 14  2  0
 13 15  1  0
 15 16  1  0
 16 17  1  0
 17 18  1  0
 18 19  1  0
 19 20  1  0
 20 21  1  0
 21 22  1  0
 22 23  1  0
 10  4  1  0
 17 11  1  0
 23 18  1  0
M  END
$$$$
