
     RDKit          3D

 22 24  0  0  0  0  0  0  0  0999 V2000
    4.7075  -44.5136  -28.3827 N   0  0  0  0  0  0  0  0  0  0  0  0
    4.6768  -45.1293  -29.7175 C   0  0  0  0  0  0  0  0  0  0  0  0
    6.0702  -45.1236  -30.3292 C   0  0  0  0  0  0  0  0  0  0  0  0
    6.8452  -44.1737  -30.2146 O   0  0  0  0  0  0  0  0  0  0  0  0
    6.4519  -46.2571  -31.1931 C   0  0  0  0  0  0  0  0  0  0  0  0
    6.5494  -45.9703  -32.5592 C   0  0  0  0  0  0  0  0  0  0  0  0
    6.9373  -46.9855  -33.4085 C   0  0  0  0  0  0  0  0  0  0  0  0
    7.2305  -48.2297  -32.9869 N   0  0  0  0  0  0  0  0  0  0  0  0
    7.1532  -48.4599  -31.6522 C   0  0  0  0  0  0  0  0  0  0  0  0
    6.7746  -47.5263  -30.6820 C   0  0  0  0  0  0  0  0  0  0  0  0
    6.7420  -47.8223  -29.3065 N   0  0  0  0  0  0  0  0  0  0  0  0
    5.5345  -48.5452  -28.8766 C   0  0  0  0  0  0  0  0  0  0  0  0
    5.6430  -50.0537  -29.0709 C   0  0  0  0  0  0  0  0  0  0  0  0
    7.0004  -50.6089  -28.6638 C   0  0  0  0  0  0  0  0  0  0  0  0
    7.8243  -49.5843  -27.8962 C   0  0  0  0  0  0  0  0  0  0  0  0
    8.0413  -48.2614  -28.6945 C   0  0  0  0  0  0  0  0  0  0  0  0
    8.7512  -47.3416  -27.7728 N   0  0  0  0  0  0  0  0  0  0  0  0
    8.6008  -45.9328  -28.1724 C   0  0  0  0  0  0  0  0  0  0  0  0
    9.5822  -44.9724  -27.4812 C   0  0  0  0  0  0  0  0  0  0  0  0
   10.0982  -45.5434  -26.1703 C   0  0  0  0  0  0  0  0  0  0  0  0
   10.7491  -46.9075  -26.3999 C   0  0  0  0  0  0  0  0  0  0  0  0
   10.1767  -47.6521  -27.6151 C   0  0  0  0  0  0  0  0  0  0  0  0
  1  2  1  0
  2  3  1  0
  3  4  2  0
  3  5  1  0
  5  6  2  0
  6  7  1  0
  7  8  2  0
  8  9  1  0
  9 10  2  0
 10 11  1  0
 11 12  1  0
 12 13  1  0
 13 14  1  0
 14 15  1  0
 15 16  1  0
 16 17  1  0
 17 18  1  0
 18 19  1  0
 19 20  1  0
 20 21  1  0
 21 22  1  0
 10  5  1  0
 16 11  1  0
 22 17  1  0
M  END
$$$$
