
     RDKit          3D

 25 27  0  0  0  0  0  0  0  0999 V2000
   -8.4865   10.7311    5.9986 C   0  0  0  0  0  0  0  0  0  0  0  0
   -8.1785    9.4404    5.4864 O   0  0  0  0  0  0  0  0  0  0  0  0
   -7.4029    9.3888    4.3610 C   0  0  0  0  0  0  0  0  0  0  0  0
   -6.9620   10.4793    3.6217 C   0  0  0  0  0  0  0  0  0  0  0  0
   -6.1732   10.2775    2.4867 C   0  0  0  0  0  0  0  0  0  0  0  0
   -5.7973    8.9830    2.0755 C   0  0  0  0  0  0  0  0  0  0  0  0
   -4.9062    8.8281    0.8561 C   0  0  0  0  0  0  0  0  0  0  0  0
   -3.6320    9.5683    0.9150 N   0  0  0  0  0  0  0  0  0  0  0  0
   -2.7321    9.0757    1.9731 C   0  0  0  0  0  0  0  0  0  0  0  0
   -2.1923    7.6847    1.7544 C   0  0  0  0  0  0  0  0  0  0  0  0
   -2.2558    6.7597    2.7952 C   0  0  0  0  0  0  0  0  0  0  0  0
   -1.7650    5.5008    2.7397 N   0  0  0  0  0  0  0  0  0  0  0  0
   -1.1397    5.1574    1.5964 C   0  0  0  0  0  0  0  0  0  0  0  0
   -1.0100    5.9998    0.5043 C   0  0  0  0  0  0  0  0  0  0  0  0
   -1.5865    7.2685    0.5603 C   0  0  0  0  0  0  0  0  0  0  0  0
   -1.3675    8.1753   -0.4945 N   0  0  0  0  0  0  0  0  0  0  0  0
   -6.2684    7.8677    2.8042 C   0  0  0  0  0  0  0  0  0  0  0  0
   -5.9941    6.5572    2.3592 N   0  0  0  0  0  0  0  0  0  0  0  0
   -7.0008    6.1059    1.3779 C   0  0  0  0  0  0  0  0  0  0  0  0
   -6.9453    4.5905    1.2108 C   0  0  0  0  0  0  0  0  0  0  0  0
   -7.3347    3.9059    2.5156 C   0  0  0  0  0  0  0  0  0  0  0  0
   -6.6658    4.5652    3.7018 C   0  0  0  0  0  0  0  0  0  0  0  0
   -6.9632    4.2420    4.8529 O   0  0  0  0  0  0  0  0  0  0  0  0
   -5.5804    5.5834    3.3970 C   0  0  0  0  0  0  0  0  0  0  0  0
   -7.0621    8.0982    3.9441 C   0  0  0  0  0  0  0  0  0  0  0  0
  1  2  1  0
  2  3  1  0
  3  4  2  0
  4  5  1  0
  5  6  2  0
  6  7  1  0
  7  8  1  0
  8  9  1  0
  9 10  1  0
 10 11  2  0
 11 12  1  0
 12 13  2  0
 13 14  1  0
 14 15  2  0
 15 16  1  0
  6 17  1  0
 17 18  1  0
 18 19  1  0
 19 20  1  0
 20 21  1  0
 21 22  1  0
 22 23  2  0
 22 24  1  0
 17 25  2  0
 25  3  1  0
 15 10  1  0
 24 18  1  0
M  END
$$$$
