
     RDKit          3D

 28 30  0  0  0  0  0  0  0  0999 V2000
   44.8768   -1.5837   47.2964 N   0  0  0  0  0  0  0  0  0  0  0  0
   45.0430   -1.1815   46.0012 C   0  0  0  0  0  0  0  0  0  0  0  0
   45.2589   -0.0167   45.7028 O   0  0  0  0  0  0  0  0  0  0  0  0
   45.0188   -2.2521   44.9794 C   0  0  0  0  0  0  0  0  0  0  0  0
   46.1353   -2.3336   44.1315 C   0  0  0  0  0  0  0  0  0  0  0  0
   46.2093   -3.3395   43.1707 C   0  0  0  0  0  0  0  0  0  0  0  0
   45.1691   -4.2523   43.0609 C   0  0  0  0  0  0  0  0  0  0  0  0
   45.2435   -5.2270   42.1455 F   0  0  0  0  0  0  0  0  0  0  0  0
   44.0475   -4.1671   43.8817 C   0  0  0  0  0  0  0  0  0  0  0  0
   43.9356   -3.1460   44.8445 C   0  0  0  0  0  0  0  0  0  0  0  0
   42.6971   -3.0200   45.7101 C   0  0  0  0  0  0  0  0  0  0  0  0
   41.5299   -3.6694   45.1192 N   0  0  0  0  0  0  0  0  0  0  0  0
   40.6153   -2.8723   44.3830 C   0  0  0  0  0  0  0  0  0  0  0  0
   41.0334   -1.8183   43.5576 C   0  0  0  0  0  0  0  0  0  0  0  0
   40.1040   -1.0568   42.8512 C   0  0  0  0  0  0  0  0  0  0  0  0
   38.7497   -1.3693   42.9473 C   0  0  0  0  0  0  0  0  0  0  0  0
   37.5647   -0.3852   42.0828 S   0  0  0  0  0  0  0  0  0  0  0  0
   37.5126   -1.1401   40.5843 N   0  0  0  0  0  0  0  0  0  0  0  0
   36.2587   -0.5817   42.6686 O   0  0  0  0  0  0  0  0  0  0  0  0
   38.1156    0.9287   41.8467 O   0  0  0  0  0  0  0  0  0  0  0  0
   38.3110   -2.4348   43.7398 C   0  0  0  0  0  0  0  0  0  0  0  0
   39.2293   -3.2245   44.4404 C   0  0  0  0  0  0  0  0  0  0  0  0
   38.8413   -4.3345   45.2151 N   0  0  0  0  0  0  0  0  0  0  0  0
   39.1847   -5.6426   44.6262 C   0  0  0  0  0  0  0  0  0  0  0  0
   38.0116   -6.2219   43.8398 C   0  0  0  0  0  0  0  0  0  0  0  0
   36.7632   -6.3056   44.7102 C   0  0  0  0  0  0  0  0  0  0  0  0
   36.4114   -4.9332   45.2724 C   0  0  0  0  0  0  0  0  0  0  0  0
   37.5953   -4.2860   45.9916 C   0  0  0  0  0  0  0  0  0  0  0  0
  1  2  1  0
  2  3  2  0
  2  4  1  0
  4  5  2  0
  5  6  1  0
  6  7  2  0
  7  8  1  0
  7  9  1  0
  9 10  2  0
 10 11  1  0
 11 12  1  0
 12 13  1  0
 13 14  2  0
 14 15  1  0
 15 16  2  0
 16 17  1  0
 17 18  1  0
 17 19  2  0
 17 20  2  0
 16 21  1  0
 21 22  2  0
 22 23  1  0
 23 24  1  0
 24 25  1  0
 25 26  1  0
 26 27  1  0
 27 28  1  0
 10  4  1  0
 22 13  1  0
 28 23  1  0
M  END
$$$$
