
     RDKit          3D

 19 20  0  0  0  0  0  0  0  0999 V2000
    1.2317   27.1178  -26.9622 C   0  0  0  0  0  0  0  0  0  0  0  0
    0.7652   25.9196  -27.6390 N   0  0  0  0  0  0  0  0  0  0  0  0
    1.6466   24.7732  -27.3536 C   0  0  0  0  0  0  0  0  0  0  0  0
    1.3032   23.6321  -28.3105 C   0  0  0  0  0  0  0  0  0  0  0  0
    1.1055   23.8254  -29.5136 O   0  0  0  0  0  0  0  0  0  0  0  0
    1.3297   22.2338  -27.8075 C   0  0  0  0  0  0  0  0  0  0  0  0
    2.0496   21.3144  -28.5892 C   0  0  0  0  0  0  0  0  0  0  0  0
    2.1740   19.9839  -28.1891 C   0  0  0  0  0  0  0  0  0  0  0  0
    1.5701   19.5615  -27.0100 C   0  0  0  0  0  0  0  0  0  0  0  0
    1.6051   18.2925  -26.4994 O   0  0  0  0  0  0  0  0  0  0  0  0
    2.3084   17.3134  -27.2542 C   0  0  0  0  0  0  0  0  0  0  0  0
    0.8364   20.4787  -26.2442 C   0  0  0  0  0  0  0  0  0  0  0  0
    0.6894   21.8283  -26.6183 C   0  0  0  0  0  0  0  0  0  0  0  0
   -0.1119   22.7081  -25.8718 N   0  0  0  0  0  0  0  0  0  0  0  0
   -1.4126   22.9852  -26.5208 C   0  0  0  0  0  0  0  0  0  0  0  0
   -2.3092   23.7971  -25.5908 C   0  0  0  0  0  0  0  0  0  0  0  0
   -2.6022   23.0420  -24.2937 C   0  0  0  0  0  0  0  0  0  0  0  0
   -1.4683   22.0967  -23.8924 C   0  0  0  0  0  0  0  0  0  0  0  0
   -0.1199   22.5932  -24.4031 C   0  0  0  0  0  0  0  0  0  0  0  0
  1  2  1  0
  2  3  1  0
  3  4  1  0
  4  5  2  0
  4  6  1  0
  6  7  2  0
  7  8  1  0
  8  9  2  0
  9 10  1  0
 10 11  1  0
  9 12  1  0
 12 13  2  0
 13 14  1  0
 14 15  1  0
 15 16  1  0
 16 17  1  0
 17 18  1  0
 18 19  1  0
 13  6  1  0
 19 14  1  0
M  END
$$$$
