
     RDKit          3D

 22 24  0  0  0  0  0  0  0  0999 V2000
   67.6516  -15.0631 -103.4499 N   0  0  0  0  0  0  0  0  0  0  0  0
   67.6209  -15.6789 -104.7848 C   0  0  0  0  0  0  0  0  0  0  0  0
   69.0142  -15.6731 -105.3965 C   0  0  0  0  0  0  0  0  0  0  0  0
   69.7893  -14.7233 -105.2819 O   0  0  0  0  0  0  0  0  0  0  0  0
   69.3960  -16.8066 -106.2603 C   0  0  0  0  0  0  0  0  0  0  0  0
   69.4935  -16.5198 -107.6264 C   0  0  0  0  0  0  0  0  0  0  0  0
   69.8813  -17.5351 -108.4758 C   0  0  0  0  0  0  0  0  0  0  0  0
   70.1746  -18.7793 -108.0542 N   0  0  0  0  0  0  0  0  0  0  0  0
   70.0972  -19.0095 -106.7195 C   0  0  0  0  0  0  0  0  0  0  0  0
   69.7187  -18.0759 -105.7493 C   0  0  0  0  0  0  0  0  0  0  0  0
   69.6861  -18.3719 -104.3738 N   0  0  0  0  0  0  0  0  0  0  0  0
   68.4786  -19.0948 -103.9438 C   0  0  0  0  0  0  0  0  0  0  0  0
   68.5871  -20.6033 -104.1381 C   0  0  0  0  0  0  0  0  0  0  0  0
   69.9444  -21.1584 -103.7310 C   0  0  0  0  0  0  0  0  0  0  0  0
   70.7684  -20.1338 -102.9635 C   0  0  0  0  0  0  0  0  0  0  0  0
   70.9853  -18.8110 -103.7617 C   0  0  0  0  0  0  0  0  0  0  0  0
   71.6953  -17.8912 -102.8400 N   0  0  0  0  0  0  0  0  0  0  0  0
   71.5449  -16.4823 -103.2397 C   0  0  0  0  0  0  0  0  0  0  0  0
   72.5263  -15.5219 -102.5484 C   0  0  0  0  0  0  0  0  0  0  0  0
   73.0422  -16.0930 -101.2376 C   0  0  0  0  0  0  0  0  0  0  0  0
   73.6932  -17.4571 -101.4672 C   0  0  0  0  0  0  0  0  0  0  0  0
   73.1208  -18.2017 -102.6824 C   0  0  0  0  0  0  0  0  0  0  0  0
  1  2  1  0
  2  3  1  0
  3  4  2  0
  3  5  1  0
  5  6  2  0
  6  7  1  0
  7  8  2  0
  8  9  1  0
  9 10  2  0
 10 11  1  0
 11 12  1  0
 12 13  1  0
 13 14  1  0
 14 15  1  0
 15 16  1  0
 16 17  1  0
 17 18  1  0
 18 19  1  0
 19 20  1  0
 20 21  1  0
 21 22  1  0
 10  5  1  0
 16 11  1  0
 22 17  1  0
M  END
$$$$
