
     RDKit          3D

 26 28  0  0  0  0  0  0  0  0999 V2000
  -19.4903   12.7507   10.4858 C   0  0  0  0  0  0  0  0  0  0  0  0
  -18.1467   12.9649    9.9725 N   0  0  0  0  0  0  0  0  0  0  0  0
  -17.0983   12.4681   10.8768 C   0  0  0  0  0  0  0  0  0  0  0  0
  -16.9747   10.9585   10.9257 C   0  0  0  0  0  0  0  0  0  0  0  0
  -17.6907   10.2483   11.9081 C   0  0  0  0  0  0  0  0  0  0  0  0
  -17.6149    8.8568   11.9962 C   0  0  0  0  0  0  0  0  0  0  0  0
  -16.8281    8.1508   11.0942 C   0  0  0  0  0  0  0  0  0  0  0  0
  -16.6444    6.7950   11.0782 O   0  0  0  0  0  0  0  0  0  0  0  0
  -17.4897    6.0263   11.9261 C   0  0  0  0  0  0  0  0  0  0  0  0
  -16.1131    8.8493   10.1163 C   0  0  0  0  0  0  0  0  0  0  0  0
  -16.1509   10.2509   10.0250 C   0  0  0  0  0  0  0  0  0  0  0  0
  -15.4208   10.9327    9.0552 N   0  0  0  0  0  0  0  0  0  0  0  0
  -16.1089   10.9882    7.7541 C   0  0  0  0  0  0  0  0  0  0  0  0
  -15.1632   10.7145    6.5839 C   0  0  0  0  0  0  0  0  0  0  0  0
  -14.2227    9.5587    6.8968 C   0  0  0  0  0  0  0  0  0  0  0  0
  -13.4093    9.7892    8.1806 C   0  0  0  0  0  0  0  0  0  0  0  0
  -13.9430   10.9570    9.0499 C   0  0  0  0  0  0  0  0  0  0  0  0
  -13.1471   11.2950   10.2510 N   0  0  0  0  0  0  0  0  0  0  0  0
  -11.8042   11.7978    9.9422 C   0  0  0  0  0  0  0  0  0  0  0  0
  -11.1625   12.4675   11.1582 C   0  0  0  0  0  0  0  0  0  0  0  0
  -11.1354   11.5413   12.3646 C   0  0  0  0  0  0  0  0  0  0  0  0
  -12.5301   10.9911   12.6431 C   0  0  0  0  0  0  0  0  0  0  0  0
  -13.1798   10.3652   11.3945 C   0  0  0  0  0  0  0  0  0  0  0  0
  -12.5343    8.9889   11.1362 C   0  0  0  0  0  0  0  0  0  0  0  0
  -13.1782    7.9256   11.7122 N   0  0  0  0  0  0  0  0  0  0  0  0
  -11.4900    8.7959   10.5195 O   0  0  0  0  0  0  0  0  0  0  0  0
  1  2  1  0
  2  3  1  0
  3  4  1  0
  4  5  2  0
  5  6  1  0
  6  7  2  0
  7  8  1  0
  8  9  1  0
  7 10  1  0
 10 11  2  0
 11 12  1  0
 12 13  1  0
 13 14  1  0
 14 15  1  0
 15 16  1  0
 16 17  1  0
 17 18  1  0
 18 19  1  0
 19 20  1  0
 20 21  1  0
 21 22  1  0
 22 23  1  0
 23 24  1  0
 24 25  1  0
 24 26  2  0
 11  4  1  0
 17 12  1  0
 23 18  1  0
M  END
$$$$
