
     RDKit          3D

 19 20  0  0  0  0  0  0  0  0999 V2000
    4.2514    1.3970   -3.6868 N   0  0  0  0  0  0  0  0  0  0  0  0
    4.7585    0.8793   -4.9523 C   0  0  0  0  0  0  0  0  0  0  0  0
    4.7885    1.9582   -6.0245 C   0  0  0  0  0  0  0  0  0  0  0  0
    3.3965    2.3387   -6.4847 C   0  0  0  0  0  0  0  0  0  0  0  0
    2.6397    1.5185   -7.0084 O   0  0  0  0  0  0  0  0  0  0  0  0
    2.9678    3.7657   -6.2949 C   0  0  0  0  0  0  0  0  0  0  0  0
    2.5321    4.0728   -4.8891 C   0  0  0  0  0  0  0  0  0  0  0  0
    3.3256    4.5489   -4.0741 O   0  0  0  0  0  0  0  0  0  0  0  0
    1.1019    3.7569   -4.5124 C   0  0  0  0  0  0  0  0  0  0  0  0
    1.0098    2.4511   -3.7373 C   0  0  0  0  0  0  0  0  0  0  0  0
   -0.4105    2.0646   -3.4726 C   0  0  0  0  0  0  0  0  0  0  0  0
   -1.1571    2.3845   -2.3559 C   0  0  0  0  0  0  0  0  0  0  0  0
   -2.4074    1.8482   -2.5075 N   0  0  0  0  0  0  0  0  0  0  0  0
   -2.4991    1.1832   -3.7077 C   0  0  0  0  0  0  0  0  0  0  0  0
   -3.5760    0.4942   -4.2786 C   0  0  0  0  0  0  0  0  0  0  0  0
   -3.3768   -0.0961   -5.5303 C   0  0  0  0  0  0  0  0  0  0  0  0
   -2.1496   -0.0000   -6.1819 C   0  0  0  0  0  0  0  0  0  0  0  0
   -1.0834    0.6928   -5.5969 C   0  0  0  0  0  0  0  0  0  0  0  0
   -1.2586    1.2978   -4.3351 C   0  0  0  0  0  0  0  0  0  0  0  0
  1  2  1  0
  2  3  1  0
  3  4  1  0
  4  5  2  0
  4  6  1  0
  6  7  1  0
  7  8  2  0
  7  9  1  0
  9 10  1  0
 10 11  1  0
 11 12  2  0
 12 13  1  0
 13 14  1  0
 14 15  2  0
 15 16  1  0
 16 17  2  0
 17 18  1  0
 18 19  2  0
 19 11  1  0
 19 14  1  0
M  END
$$$$
