
     RDKit          3D

 19 20  0  0  0  0  0  0  0  0999 V2000
   -7.5948    8.3361    1.7562 N   0  0  0  0  0  0  0  0  0  0  0  0
   -7.0878    7.8184    0.4907 C   0  0  0  0  0  0  0  0  0  0  0  0
   -7.0577    8.8974   -0.5815 C   0  0  0  0  0  0  0  0  0  0  0  0
   -8.4498    9.2778   -1.0417 C   0  0  0  0  0  0  0  0  0  0  0  0
   -9.2066    8.4576   -1.5654 O   0  0  0  0  0  0  0  0  0  0  0  0
   -8.8785   10.7048   -0.8519 C   0  0  0  0  0  0  0  0  0  0  0  0
   -9.3142   11.0119    0.5539 C   0  0  0  0  0  0  0  0  0  0  0  0
   -8.5207   11.4880    1.3688 O   0  0  0  0  0  0  0  0  0  0  0  0
  -10.7444   10.6960    0.9306 C   0  0  0  0  0  0  0  0  0  0  0  0
  -10.8364    9.3902    1.7056 C   0  0  0  0  0  0  0  0  0  0  0  0
  -12.2567    9.0037    1.9704 C   0  0  0  0  0  0  0  0  0  0  0  0
  -13.0033    9.3237    3.0871 C   0  0  0  0  0  0  0  0  0  0  0  0
  -14.2536    8.7874    2.9355 N   0  0  0  0  0  0  0  0  0  0  0  0
  -14.3454    8.1223    1.7352 C   0  0  0  0  0  0  0  0  0  0  0  0
  -15.4223    7.4334    1.1643 C   0  0  0  0  0  0  0  0  0  0  0  0
  -15.2231    6.8431   -0.0873 C   0  0  0  0  0  0  0  0  0  0  0  0
  -13.9959    6.9391   -0.7389 C   0  0  0  0  0  0  0  0  0  0  0  0
  -12.9297    7.6319   -0.1540 C   0  0  0  0  0  0  0  0  0  0  0  0
  -13.1048    8.2369    1.1078 C   0  0  0  0  0  0  0  0  0  0  0  0
  1  2  1  0
  2  3  1  0
  3  4  1  0
  4  5  2  0
  4  6  1  0
  6  7  1  0
  7  8  2  0
  7  9  1  0
  9 10  1  0
 10 11  1  0
 11 12  2  0
 12 13  1  0
 13 14  1  0
 14 15  2  0
 15 16  1  0
 16 17  2  0
 17 18  1  0
 18 19  2  0
 19 11  1  0
 19 14  1  0
M  END
$$$$
