
     RDKit          3D

 19 20  0  0  0  0  0  0  0  0999 V2000
   31.4549   11.9794  -24.0964 N   0  0  0  0  0  0  0  0  0  0  0  0
   31.9620   11.4618  -25.3619 C   0  0  0  0  0  0  0  0  0  0  0  0
   31.9920   12.5407  -26.4341 C   0  0  0  0  0  0  0  0  0  0  0  0
   30.5999   12.9212  -26.8943 C   0  0  0  0  0  0  0  0  0  0  0  0
   29.8432   12.1010  -27.4180 O   0  0  0  0  0  0  0  0  0  0  0  0
   30.1713   14.3482  -26.7045 C   0  0  0  0  0  0  0  0  0  0  0  0
   29.7356   14.6553  -25.2988 C   0  0  0  0  0  0  0  0  0  0  0  0
   30.5290   15.1313  -24.4838 O   0  0  0  0  0  0  0  0  0  0  0  0
   28.3054   14.3394  -24.9221 C   0  0  0  0  0  0  0  0  0  0  0  0
   28.2133   13.0335  -24.1470 C   0  0  0  0  0  0  0  0  0  0  0  0
   26.7930   12.6471  -23.8823 C   0  0  0  0  0  0  0  0  0  0  0  0
   26.0464   12.9670  -22.7655 C   0  0  0  0  0  0  0  0  0  0  0  0
   24.7961   12.4307  -22.9172 N   0  0  0  0  0  0  0  0  0  0  0  0
   24.7044   11.7657  -24.1174 C   0  0  0  0  0  0  0  0  0  0  0  0
   23.6275   11.0767  -24.6883 C   0  0  0  0  0  0  0  0  0  0  0  0
   23.8267   10.4864  -25.9399 C   0  0  0  0  0  0  0  0  0  0  0  0
   25.0539   10.5825  -26.5915 C   0  0  0  0  0  0  0  0  0  0  0  0
   26.1201   11.2752  -26.0066 C   0  0  0  0  0  0  0  0  0  0  0  0
   25.9449   11.8802  -24.7448 C   0  0  0  0  0  0  0  0  0  0  0  0
  1  2  1  0
  2  3  1  0
  3  4  1  0
  4  5  2  0
  4  6  1  0
  6  7  1  0
  7  8  2  0
  7  9  1  0
  9 10  1  0
 10 11  1  0
 11 12  2  0
 12 13  1  0
 13 14  1  0
 14 15  2  0
 15 16  1  0
 16 17  2  0
 17 18  1  0
 18 19  2  0
 19 11  1  0
 19 14  1  0
M  END
$$$$
