
     RDKit          3D

 19 20  0  0  0  0  0  0  0  0999 V2000
  -10.7230   11.7350  -47.5538 N   0  0  0  0  0  0  0  0  0  0  0  0
  -10.2160   11.2174  -48.8192 C   0  0  0  0  0  0  0  0  0  0  0  0
  -10.1859   12.2963  -49.8914 C   0  0  0  0  0  0  0  0  0  0  0  0
  -11.5780   12.6768  -50.3517 C   0  0  0  0  0  0  0  0  0  0  0  0
  -12.3348   11.8566  -50.8753 O   0  0  0  0  0  0  0  0  0  0  0  0
  -12.0067   14.1038  -50.1618 C   0  0  0  0  0  0  0  0  0  0  0  0
  -12.4424   14.4109  -48.7561 C   0  0  0  0  0  0  0  0  0  0  0  0
  -11.6489   14.8869  -47.9411 O   0  0  0  0  0  0  0  0  0  0  0  0
  -13.8726   14.0950  -48.3794 C   0  0  0  0  0  0  0  0  0  0  0  0
  -13.9646   12.7891  -47.6043 C   0  0  0  0  0  0  0  0  0  0  0  0
  -15.3849   12.4027  -47.3396 C   0  0  0  0  0  0  0  0  0  0  0  0
  -16.1315   12.7226  -46.2229 C   0  0  0  0  0  0  0  0  0  0  0  0
  -17.3818   12.1863  -46.3745 N   0  0  0  0  0  0  0  0  0  0  0  0
  -17.4736   11.5213  -47.5747 C   0  0  0  0  0  0  0  0  0  0  0  0
  -18.5505   10.8323  -48.1456 C   0  0  0  0  0  0  0  0  0  0  0  0
  -18.3513   10.2420  -49.3972 C   0  0  0  0  0  0  0  0  0  0  0  0
  -17.1241   10.3381  -50.0488 C   0  0  0  0  0  0  0  0  0  0  0  0
  -16.0579   11.0308  -49.4639 C   0  0  0  0  0  0  0  0  0  0  0  0
  -16.2330   11.6358  -48.2021 C   0  0  0  0  0  0  0  0  0  0  0  0
  1  2  1  0
  2  3  1  0
  3  4  1  0
  4  5  2  0
  4  6  1  0
  6  7  1  0
  7  8  2  0
  7  9  1  0
  9 10  1  0
 10 11  1  0
 11 12  2  0
 12 13  1  0
 13 14  1  0
 14 15  2  0
 15 16  1  0
 16 17  2  0
 17 18  1  0
 18 19  2  0
 19 11  1  0
 19 14  1  0
M  END
$$$$
