
     RDKit          3D

 28 31  0  0  0  0  0  0  0  0999 V2000
   -7.0487    4.8160    2.6767 N   0  0  0  0  0  0  0  0  0  0  0  0
   -5.7867    4.5409    2.2247 C   0  0  0  0  0  0  0  0  0  0  0  0
   -4.8624    4.3232    2.9942 O   0  0  0  0  0  0  0  0  0  0  0  0
   -5.6172    4.5231    0.7541 C   0  0  0  0  0  0  0  0  0  0  0  0
   -6.4637    3.6502    0.0516 C   0  0  0  0  0  0  0  0  0  0  0  0
   -6.2802    3.5090   -1.3079 C   0  0  0  0  0  0  0  0  0  0  0  0
   -5.3298    4.1658   -1.9928 N   0  0  0  0  0  0  0  0  0  0  0  0
   -4.5308    5.0013   -1.2810 C   0  0  0  0  0  0  0  0  0  0  0  0
   -4.6018    5.2437    0.0978 C   0  0  0  0  0  0  0  0  0  0  0  0
   -3.7208    6.1511    0.6826 N   0  0  0  0  0  0  0  0  0  0  0  0
   -4.1839    7.0567    1.7467 C   0  0  0  0  0  0  0  0  0  0  0  0
   -3.5357    8.4235    1.5577 C   0  0  0  0  0  0  0  0  0  0  0  0
   -4.0651    9.4623    1.9546 O   0  0  0  0  0  0  0  0  0  0  0  0
   -2.1940    8.4396    0.8582 C   0  0  0  0  0  0  0  0  0  0  0  0
   -1.4814    7.1200    1.1260 C   0  0  0  0  0  0  0  0  0  0  0  0
   -2.2606    5.9166    0.5538 C   0  0  0  0  0  0  0  0  0  0  0  0
   -1.8473    4.5877    1.2297 C   0  0  0  0  0  0  0  0  0  0  0  0
   -0.4184    4.1484    0.8974 C   0  0  0  0  0  0  0  0  0  0  0  0
    0.5515    4.6906    1.8369 N   0  0  0  0  0  0  0  0  0  0  0  0
    1.8639    4.7164    1.5263 C   0  0  0  0  0  0  0  0  0  0  0  0
    2.7042    5.6819    1.8036 N   0  0  0  0  0  0  0  0  0  0  0  0
    3.9163    5.2654    1.3076 C   0  0  0  0  0  0  0  0  0  0  0  0
    5.1613    5.9112    1.3184 C   0  0  0  0  0  0  0  0  0  0  0  0
    6.2596    5.2614    0.7399 C   0  0  0  0  0  0  0  0  0  0  0  0
    6.1214    3.9945    0.1641 C   0  0  0  0  0  0  0  0  0  0  0  0
    4.8874    3.3330    0.1452 C   0  0  0  0  0  0  0  0  0  0  0  0
    3.8103    4.0059    0.7260 C   0  0  0  0  0  0  0  0  0  0  0  0
    2.4902    3.6759    0.8923 N   0  0  0  0  0  0  0  0  0  0  0  0
  1  2  1  0
  2  3  2  0
  2  4  1  0
  4  5  2  0
  5  6  1  0
  6  7  2  0
  7  8  1  0
  8  9  2  0
  9 10  1  0
 10 11  1  0
 11 12  1  0
 12 13  2  0
 12 14  1  0
 14 15  1  0
 15 16  1  0
 16 17  1  0
 17 18  1  0
 18 19  1  0
 19 20  1  0
 20 21  2  0
 21 22  1  0
 22 23  2  0
 23 24  1  0
 24 25  2  0
 25 26  1  0
 26 27  2  0
 27 28  1  0
  9  4  1  0
 16 10  1  0
 28 20  1  0
 27 22  1  0
M  END
$$$$
