
     RDKit          3D

 24 25  0  0  0  0  0  0  0  0999 V2000
    5.2770  -18.5921   55.0684 C   0  0  0  0  0  0  0  0  0  0  0  0
    4.3708  -19.1109   54.0528 N   0  0  0  0  0  0  0  0  0  0  0  0
    3.0768  -18.4181   54.1103 C   0  0  0  0  0  0  0  0  0  0  0  0
    2.2106  -18.8867   52.9471 C   0  0  0  0  0  0  0  0  0  0  0  0
    2.3265  -18.3995   51.8222 O   0  0  0  0  0  0  0  0  0  0  0  0
    1.2142  -19.9682   53.1800 C   0  0  0  0  0  0  0  0  0  0  0  0
    1.4064  -20.9479   54.1561 C   0  0  0  0  0  0  0  0  0  0  0  0
    0.4489  -21.9510   54.3449 C   0  0  0  0  0  0  0  0  0  0  0  0
   -0.7051  -21.9912   53.5554 C   0  0  0  0  0  0  0  0  0  0  0  0
   -1.7054  -22.9208   53.6831 O   0  0  0  0  0  0  0  0  0  0  0  0
   -1.4830  -23.9972   54.5867 C   0  0  0  0  0  0  0  0  0  0  0  0
   -0.8968  -21.0167   52.5571 C   0  0  0  0  0  0  0  0  0  0  0  0
   -2.1310  -21.0131   51.6869 C   0  0  0  0  0  0  0  0  0  0  0  0
   -3.2891  -20.5698   52.4314 N   0  0  0  0  0  0  0  0  0  0  0  0
   -3.6556  -19.2430   52.4641 C   0  0  0  0  0  0  0  0  0  0  0  0
   -3.1162  -18.3704   51.7937 O   0  0  0  0  0  0  0  0  0  0  0  0
   -4.7505  -18.8847   53.4093 C   0  0  0  0  0  0  0  0  0  0  0  0
   -4.8003  -17.5717   53.9018 C   0  0  0  0  0  0  0  0  0  0  0  0
   -5.8095  -17.1918   54.7888 C   0  0  0  0  0  0  0  0  0  0  0  0
   -6.7688  -18.1218   55.1723 C   0  0  0  0  0  0  0  0  0  0  0  0
   -7.7376  -17.7583   56.0223 F   0  0  0  0  0  0  0  0  0  0  0  0
   -6.7429  -19.4231   54.6813 C   0  0  0  0  0  0  0  0  0  0  0  0
   -5.7344  -19.8082   53.7939 C   0  0  0  0  0  0  0  0  0  0  0  0
    0.0678  -20.0084   52.3805 C   0  0  0  0  0  0  0  0  0  0  0  0
  1  2  1  0
  2  3  1  0
  3  4  1  0
  4  5  2  0
  4  6  1  0
  6  7  2  0
  7  8  1  0
  8  9  2  0
  9 10  1  0
 10 11  1  0
  9 12  1  0
 12 13  1  0
 13 14  1  0
 14 15  1  0
 15 16  2  0
 15 17  1  0
 17 18  2  0
 18 19  1  0
 19 20  2  0
 20 21  1  0
 20 22  1  0
 22 23  2  0
 12 24  2  0
 24  6  1  0
 23 17  1  0
M  END
$$$$
