
     RDKit          3D

 25 27  0  0  0  0  0  0  0  0999 V2000
  -27.0487  -46.7960  -30.9670 N   0  0  0  0  0  0  0  0  0  0  0  0
  -28.0181  -47.4784  -31.8144 C   0  0  0  0  0  0  0  0  0  0  0  0
  -28.2485  -48.9054  -31.3224 C   0  0  0  0  0  0  0  0  0  0  0  0
  -29.2250  -49.6437  -32.2339 C   0  0  0  0  0  0  0  0  0  0  0  0
  -29.5546  -51.0430  -31.7353 C   0  0  0  0  0  0  0  0  0  0  0  0
  -29.0680  -51.4979  -30.6985 O   0  0  0  0  0  0  0  0  0  0  0  0
  -30.5185  -51.8525  -32.6248 C   0  0  0  0  0  0  0  0  0  0  0  0
  -29.6966  -52.8369  -33.4809 C   0  0  0  0  0  0  0  0  0  0  0  0
  -29.6486  -54.2226  -32.8530 C   0  0  0  0  0  0  0  0  0  0  0  0
  -31.0576  -54.7616  -32.6070 C   0  0  0  0  0  0  0  0  0  0  0  0
  -32.1204  -53.6617  -32.4743 C   0  0  0  0  0  0  0  0  0  0  0  0
  -31.5643  -52.5055  -31.7885 N   0  0  0  0  0  0  0  0  0  0  0  0
  -32.5410  -51.5126  -31.2945 C   0  0  0  0  0  0  0  0  0  0  0  0
  -33.3990  -52.0664  -30.1213 C   0  0  0  0  0  0  0  0  0  0  0  0
  -34.7893  -52.5775  -30.4862 C   0  0  0  0  0  0  0  0  0  0  0  0
  -35.5148  -51.5921  -31.3876 C   0  0  0  0  0  0  0  0  0  0  0  0
  -34.6782  -51.2913  -32.6218 C   0  0  0  0  0  0  0  0  0  0  0  0
  -33.3584  -50.7601  -32.2670 N   0  0  0  0  0  0  0  0  0  0  0  0
  -33.3053  -49.3539  -32.2097 C   0  0  0  0  0  0  0  0  0  0  0  0
  -33.4908  -48.6043  -31.0463 C   0  0  0  0  0  0  0  0  0  0  0  0
  -33.4486  -47.2514  -30.9773 N   0  0  0  0  0  0  0  0  0  0  0  0
  -33.1956  -46.5981  -32.1285 C   0  0  0  0  0  0  0  0  0  0  0  0
  -32.9945  -47.2284  -33.3440 C   0  0  0  0  0  0  0  0  0  0  0  0
  -33.0824  -48.6184  -33.3952 C   0  0  0  0  0  0  0  0  0  0  0  0
  -32.7281  -49.2940  -34.5865 N   0  0  0  0  0  0  0  0  0  0  0  0
  1  2  1  0
  2  3  1  0
  3  4  1  0
  4  5  1  0
  5  6  2  0
  5  7  1  0
  7  8  1  0
  8  9  1  0
  9 10  1  0
 10 11  1  0
 11 12  1  0
 12 13  1  0
 13 14  1  0
 14 15  1  0
 15 16  1  0
 16 17  1  0
 17 18  1  0
 18 19  1  0
 19 20  2  0
 20 21  1  0
 21 22  2  0
 22 23  1  0
 23 24  2  0
 24 25  1  0
 12  7  1  0
 18 13  1  0
 24 19  1  0
M  END
$$$$
