
     RDKit          3D

 19 20  0  0  0  0  0  0  0  0999 V2000
  -58.2279  -25.3764   70.2022 N   0  0  0  0  0  0  0  0  0  0  0  0
  -57.7208  -25.8941   68.9367 C   0  0  0  0  0  0  0  0  0  0  0  0
  -57.6908  -24.8152   67.8645 C   0  0  0  0  0  0  0  0  0  0  0  0
  -59.0829  -24.4347   67.4043 C   0  0  0  0  0  0  0  0  0  0  0  0
  -59.8396  -25.2549   66.8806 O   0  0  0  0  0  0  0  0  0  0  0  0
  -59.5115  -23.0077   67.5941 C   0  0  0  0  0  0  0  0  0  0  0  0
  -59.9472  -22.7006   68.9999 C   0  0  0  0  0  0  0  0  0  0  0  0
  -59.1538  -22.2245   69.8148 O   0  0  0  0  0  0  0  0  0  0  0  0
  -61.3775  -23.0165   69.3765 C   0  0  0  0  0  0  0  0  0  0  0  0
  -61.4695  -24.3223   70.1516 C   0  0  0  0  0  0  0  0  0  0  0  0
  -62.8898  -24.7088   70.4163 C   0  0  0  0  0  0  0  0  0  0  0  0
  -63.6364  -24.3889   71.5331 C   0  0  0  0  0  0  0  0  0  0  0  0
  -64.8867  -24.9252   71.3814 N   0  0  0  0  0  0  0  0  0  0  0  0
  -64.9784  -25.5902   70.1812 C   0  0  0  0  0  0  0  0  0  0  0  0
  -66.0553  -26.2792   69.6103 C   0  0  0  0  0  0  0  0  0  0  0  0
  -65.8562  -26.8695   68.3587 C   0  0  0  0  0  0  0  0  0  0  0  0
  -64.6290  -26.7734   67.7071 C   0  0  0  0  0  0  0  0  0  0  0  0
  -63.5628  -26.0806   68.2920 C   0  0  0  0  0  0  0  0  0  0  0  0
  -63.7379  -25.4756   69.5538 C   0  0  0  0  0  0  0  0  0  0  0  0
  1  2  1  0
  2  3  1  0
  3  4  1  0
  4  5  2  0
  4  6  1  0
  6  7  1  0
  7  8  2  0
  7  9  1  0
  9 10  1  0
 10 11  1  0
 11 12  2  0
 12 13  1  0
 13 14  1  0
 14 15  2  0
 15 16  1  0
 16 17  2  0
 17 18  1  0
 18 19  2  0
 19 11  1  0
 19 14  1  0
M  END
$$$$
