
     RDKit          3D

 19 20  0  0  0  0  0  0  0  0999 V2000
   38.2928  -15.5718  -34.9071 N   0  0  0  0  0  0  0  0  0  0  0  0
   38.7998  -16.0894  -36.1726 C   0  0  0  0  0  0  0  0  0  0  0  0
   38.8298  -15.0105  -37.2448 C   0  0  0  0  0  0  0  0  0  0  0  0
   37.4378  -14.6300  -37.7050 C   0  0  0  0  0  0  0  0  0  0  0  0
   36.6810  -15.4502  -38.2287 O   0  0  0  0  0  0  0  0  0  0  0  0
   37.0091  -13.2030  -37.5152 C   0  0  0  0  0  0  0  0  0  0  0  0
   36.5734  -12.8959  -36.1094 C   0  0  0  0  0  0  0  0  0  0  0  0
   37.3669  -12.4199  -35.2944 O   0  0  0  0  0  0  0  0  0  0  0  0
   35.1432  -13.2118  -35.7327 C   0  0  0  0  0  0  0  0  0  0  0  0
   35.0511  -14.5176  -34.9576 C   0  0  0  0  0  0  0  0  0  0  0  0
   33.6309  -14.9041  -34.6929 C   0  0  0  0  0  0  0  0  0  0  0  0
   32.8842  -14.5842  -33.5762 C   0  0  0  0  0  0  0  0  0  0  0  0
   31.6340  -15.1205  -33.7278 N   0  0  0  0  0  0  0  0  0  0  0  0
   31.5422  -15.7855  -34.9281 C   0  0  0  0  0  0  0  0  0  0  0  0
   30.4653  -16.4745  -35.4989 C   0  0  0  0  0  0  0  0  0  0  0  0
   30.6645  -17.0648  -36.7506 C   0  0  0  0  0  0  0  0  0  0  0  0
   31.8917  -16.9687  -37.4022 C   0  0  0  0  0  0  0  0  0  0  0  0
   32.9579  -16.2759  -36.8172 C   0  0  0  0  0  0  0  0  0  0  0  0
   32.7827  -15.6710  -35.5554 C   0  0  0  0  0  0  0  0  0  0  0  0
  1  2  1  0
  2  3  1  0
  3  4  1  0
  4  5  2  0
  4  6  1  0
  6  7  1  0
  7  8  2  0
  7  9  1  0
  9 10  1  0
 10 11  1  0
 11 12  2  0
 12 13  1  0
 13 14  1  0
 14 15  2  0
 15 16  1  0
 16 17  2  0
 17 18  1  0
 18 19  2  0
 19 11  1  0
 19 14  1  0
M  END
$$$$
