
     RDKit          3D

 16 17  0  0  0  0  0  0  0  0999 V2000
  -13.2935   11.5853   16.1832 N   0  0  0  0  0  0  0  0  0  0  0  0
  -14.1977   11.4533   17.3255 C   0  0  0  0  0  0  0  0  0  0  0  0
  -15.6105   11.1349   16.8526 C   0  0  0  0  0  0  0  0  0  0  0  0
  -16.5724   10.9806   18.0167 C   0  0  0  0  0  0  0  0  0  0  0  0
  -16.2468   11.2413   19.1742 O   0  0  0  0  0  0  0  0  0  0  0  0
  -17.9685   10.5111   17.6549 C   0  0  0  0  0  0  0  0  0  0  0  0
  -18.8619   10.3653   18.8829 C   0  0  0  0  0  0  0  0  0  0  0  0
  -20.2368    9.9021   18.5166 C   0  0  0  0  0  0  0  0  0  0  0  0
  -20.6858    8.5958   18.5121 C   0  0  0  0  0  0  0  0  0  0  0  0
  -21.9955    8.5921   18.1148 N   0  0  0  0  0  0  0  0  0  0  0  0
  -22.4172    9.8742   17.8518 C   0  0  0  0  0  0  0  0  0  0  0  0
  -23.6639   10.3430   17.4202 C   0  0  0  0  0  0  0  0  0  0  0  0
  -23.8099   11.7210   17.2365 C   0  0  0  0  0  0  0  0  0  0  0  0
  -22.7506   12.5926   17.4767 C   0  0  0  0  0  0  0  0  0  0  0  0
  -21.5108   12.1066   17.9079 C   0  0  0  0  0  0  0  0  0  0  0  0
  -21.3361   10.7203   18.0997 C   0  0  0  0  0  0  0  0  0  0  0  0
  1  2  1  0
  2  3  1  0
  3  4  1  0
  4  5  2  0
  4  6  1  0
  6  7  1  0
  7  8  1  0
  8  9  2  0
  9 10  1  0
 10 11  1  0
 11 12  2  0
 12 13  1  0
 13 14  2  0
 14 15  1  0
 15 16  2  0
 16  8  1  0
 16 11  1  0
M  END
$$$$
