
     RDKit          3D

 27 29  0  0  0  0  0  0  0  0999 V2000
   28.8265   10.0158  -35.3801 C   0  0  0  0  0  0  0  0  0  0  0  0
   29.8684   10.9823  -35.3178 O   0  0  0  0  0  0  0  0  0  0  0  0
   29.5220   12.2941  -35.5151 C   0  0  0  0  0  0  0  0  0  0  0  0
   28.2355   12.7403  -35.8279 C   0  0  0  0  0  0  0  0  0  0  0  0
   27.9862   14.1016  -36.0289 C   0  0  0  0  0  0  0  0  0  0  0  0
   29.0159   15.0434  -35.9251 C   0  0  0  0  0  0  0  0  0  0  0  0
   28.7372   16.5079  -36.1461 C   0  0  0  0  0  0  0  0  0  0  0  0
   28.3683   16.7748  -37.5304 N   0  0  0  0  0  0  0  0  0  0  0  0
   30.3057   14.5945  -35.6167 C   0  0  0  0  0  0  0  0  0  0  0  0
   30.5679   13.2281  -35.3992 C   0  0  0  0  0  0  0  0  0  0  0  0
   31.9799   12.7885  -35.0849 C   0  0  0  0  0  0  0  0  0  0  0  0
   32.6187   12.2193  -36.2706 N   0  0  0  0  0  0  0  0  0  0  0  0
   34.2925   12.2999  -36.3779 S   0  0  0  0  0  0  0  0  0  0  0  0
   34.7825   12.2254  -35.0193 O   0  0  0  0  0  0  0  0  0  0  0  0
   34.6651   11.3338  -37.3894 O   0  0  0  0  0  0  0  0  0  0  0  0
   34.5673   13.9096  -37.0749 C   0  0  0  0  0  0  0  0  0  0  0  0
   33.5672   14.4368  -37.9059 C   0  0  0  0  0  0  0  0  0  0  0  0
   33.7268   15.7158  -38.3964 C   0  0  0  0  0  0  0  0  0  0  0  0
   34.7937   16.4845  -38.1186 N   0  0  0  0  0  0  0  0  0  0  0  0
   35.7527   15.9325  -37.3332 C   0  0  0  0  0  0  0  0  0  0  0  0
   35.7174   14.6496  -36.7738 C   0  0  0  0  0  0  0  0  0  0  0  0
   36.7822   14.1370  -36.0287 N   0  0  0  0  0  0  0  0  0  0  0  0
   37.7295   13.3440  -36.8345 C   0  0  0  0  0  0  0  0  0  0  0  0
   38.9169   12.9169  -35.9775 C   0  0  0  0  0  0  0  0  0  0  0  0
   39.6822   14.1250  -35.4354 C   0  0  0  0  0  0  0  0  0  0  0  0
   38.7971   15.3618  -35.2724 C   0  0  0  0  0  0  0  0  0  0  0  0
   37.3512   14.9836  -34.9672 C   0  0  0  0  0  0  0  0  0  0  0  0
  1  2  1  0
  2  3  1  0
  3  4  2  0
  4  5  1  0
  5  6  2  0
  6  7  1  0
  7  8  1  0
  6  9  1  0
  9 10  2  0
 10 11  1  0
 11 12  1  0
 12 13  1  0
 13 14  2  0
 13 15  2  0
 13 16  1  0
 16 17  2  0
 17 18  1  0
 18 19  2  0
 19 20  1  0
 20 21  2  0
 21 22  1  0
 22 23  1  0
 23 24  1  0
 24 25  1  0
 25 26  1  0
 26 27  1  0
 10  3  1  0
 21 16  1  0
 27 22  1  0
M  END
$$$$
