
     RDKit          3D

 23 25  0  0  0  0  0  0  0  0999 V2000
  -64.7521   18.4717  -59.3011 C   0  0  0  0  0  0  0  0  0  0  0  0
  -63.6079   17.7763  -58.8212 O   0  0  0  0  0  0  0  0  0  0  0  0
  -62.8087   18.4432  -57.9337 C   0  0  0  0  0  0  0  0  0  0  0  0
  -62.9267   19.7797  -57.5716 C   0  0  0  0  0  0  0  0  0  0  0  0
  -62.0350   20.3292  -56.6479 C   0  0  0  0  0  0  0  0  0  0  0  0
  -61.0163   19.5540  -56.0572 C   0  0  0  0  0  0  0  0  0  0  0  0
  -60.1138   20.1998  -55.0271 C   0  0  0  0  0  0  0  0  0  0  0  0
  -60.8596   20.6904  -53.8615 N   0  0  0  0  0  0  0  0  0  0  0  0
  -60.8691   18.2064  -56.4472 C   0  0  0  0  0  0  0  0  0  0  0  0
  -59.8103   17.4248  -55.9406 N   0  0  0  0  0  0  0  0  0  0  0  0
  -60.2230   16.1958  -55.2436 C   0  0  0  0  0  0  0  0  0  0  0  0
  -60.1498   14.9614  -56.1237 C   0  0  0  0  0  0  0  0  0  0  0  0
  -60.9272   14.0142  -55.9927 O   0  0  0  0  0  0  0  0  0  0  0  0
  -59.0492   14.9201  -57.1538 C   0  0  0  0  0  0  0  0  0  0  0  0
  -57.9982   15.9734  -56.8350 C   0  0  0  0  0  0  0  0  0  0  0  0
  -58.6264   17.3925  -56.8378 C   0  0  0  0  0  0  0  0  0  0  0  0
  -57.6139   18.4379  -56.6308 N   0  0  0  0  0  0  0  0  0  0  0  0
  -56.8010   18.3008  -55.4311 C   0  0  0  0  0  0  0  0  0  0  0  0
  -56.1429   19.6419  -55.0828 C   0  0  0  0  0  0  0  0  0  0  0  0
  -55.6913   20.4338  -56.3127 C   0  0  0  0  0  0  0  0  0  0  0  0
  -55.5380   19.5256  -57.5248 C   0  0  0  0  0  0  0  0  0  0  0  0
  -56.8441   18.7773  -57.8288 C   0  0  0  0  0  0  0  0  0  0  0  0
  -61.7821   17.6730  -57.3782 C   0  0  0  0  0  0  0  0  0  0  0  0
  1  2  1  0
  2  3  1  0
  3  4  2  0
  4  5  1  0
  5  6  2  0
  6  7  1  0
  7  8  1  0
  6  9  1  0
  9 10  1  0
 10 11  1  0
 11 12  1  0
 12 13  2  0
 12 14  1  0
 14 15  1  0
 15 16  1  0
 16 17  1  0
 17 18  1  0
 18 19  1  0
 19 20  1  0
 20 21  1  0
 21 22  1  0
  9 23  2  0
 23  3  1  0
 16 10  1  0
 22 17  1  0
M  END
$$$$
