
     RDKit          3D

 16 17  0  0  0  0  0  0  0  0999 V2000
  -16.8082    1.4386   -0.7222 N   0  0  0  0  0  0  0  0  0  0  0  0
  -16.2466    0.3478    0.0630 C   0  0  0  0  0  0  0  0  0  0  0  0
  -17.3429   -0.3399    0.8734 C   0  0  0  0  0  0  0  0  0  0  0  0
  -16.7604   -1.4220    1.7735 C   0  0  0  0  0  0  0  0  0  0  0  0
  -17.8279   -2.3106    2.3817 C   0  0  0  0  0  0  0  0  0  0  0  0
  -17.8766   -3.5102    2.0946 O   0  0  0  0  0  0  0  0  0  0  0  0
  -18.8037   -1.6863    3.3625 C   0  0  0  0  0  0  0  0  0  0  0  0
  -20.1094   -1.3429    2.7245 C   0  0  0  0  0  0  0  0  0  0  0  0
  -20.9763   -2.2288    2.1124 C   0  0  0  0  0  0  0  0  0  0  0  0
  -22.0612   -1.5324    1.6578 N   0  0  0  0  0  0  0  0  0  0  0  0
  -21.9337   -0.1997    1.9690 C   0  0  0  0  0  0  0  0  0  0  0  0
  -22.7960    0.8717    1.7063 C   0  0  0  0  0  0  0  0  0  0  0  0
  -22.4081    2.1397    2.1471 C   0  0  0  0  0  0  0  0  0  0  0  0
  -21.2063    2.3252    2.8248 C   0  0  0  0  0  0  0  0  0  0  0  0
  -20.3567    1.2424    3.0804 C   0  0  0  0  0  0  0  0  0  0  0  0
  -20.7212   -0.0487    2.6438 C   0  0  0  0  0  0  0  0  0  0  0  0
  1  2  1  0
  2  3  1  0
  3  4  1  0
  4  5  1  0
  5  6  2  0
  5  7  1  0
  7  8  1  0
  8  9  2  0
  9 10  1  0
 10 11  1  0
 11 12  2  0
 12 13  1  0
 13 14  2  0
 14 15  1  0
 15 16  2  0
 16  8  1  0
 16 11  1  0
M  END
$$$$
