
     RDKit          3D

 32 34  0  0  0  0  0  0  0  0999 V2000
   28.7763    1.9500   -4.7582 N   0  0  0  0  0  0  0  0  0  0  0  0
   27.4466    2.2765   -4.2376 C   0  0  0  0  0  0  0  0  0  0  0  0
   26.3511    1.4786   -4.9347 C   0  0  0  0  0  0  0  0  0  0  0  0
   26.4009    0.0115   -4.5588 C   0  0  0  0  0  0  0  0  0  0  0  0
   26.4826   -0.3746   -3.3936 O   0  0  0  0  0  0  0  0  0  0  0  0
   26.3169   -0.9932   -5.6523 C   0  0  0  0  0  0  0  0  0  0  0  0
   27.2251   -0.8832   -6.7176 C   0  0  0  0  0  0  0  0  0  0  0  0
   27.2044   -1.8161   -7.7532 C   0  0  0  0  0  0  0  0  0  0  0  0
   26.2893   -2.8614   -7.7170 C   0  0  0  0  0  0  0  0  0  0  0  0
   26.2628   -4.0128   -8.9943 Cl  0  0  0  0  0  0  0  0  0  0  0  0
   25.3865   -2.9840   -6.6557 C   0  0  0  0  0  0  0  0  0  0  0  0
   25.3724   -2.0474   -5.6033 C   0  0  0  0  0  0  0  0  0  0  0  0
   24.3742   -2.1354   -4.4609 C   0  0  0  0  0  0  0  0  0  0  0  0
   23.6402   -0.9023   -4.4360 O   0  0  0  0  0  0  0  0  0  0  0  0
   23.3719   -3.3076   -4.5546 C   0  0  0  0  0  0  0  0  0  0  0  0
   23.6264   -4.4455   -4.1698 O   0  0  0  0  0  0  0  0  0  0  0  0
   22.1812   -2.9708   -5.1611 N   0  0  0  0  0  0  0  0  0  0  0  0
   21.2128   -3.9714   -5.5352 C   0  0  0  0  0  0  0  0  0  0  0  0
   20.0079   -3.3561   -6.2013 C   0  0  0  0  0  0  0  0  0  0  0  0
   19.9623   -3.4359   -7.6136 C   0  0  0  0  0  0  0  0  0  0  0  0
   18.9320   -2.8528   -8.3495 C   0  0  0  0  0  0  0  0  0  0  0  0
   17.9352   -2.1700   -7.6784 C   0  0  0  0  0  0  0  0  0  0  0  0
   16.9047   -1.5762   -8.3443 O   0  0  0  0  0  0  0  0  0  0  0  0
   17.9618   -2.0695   -6.2930 C   0  0  0  0  0  0  0  0  0  0  0  0
   18.9858   -2.6600   -5.5215 C   0  0  0  0  0  0  0  0  0  0  0  0
   18.8924   -2.4696   -4.1420 N   0  0  0  0  0  0  0  0  0  0  0  0
   18.9827   -3.6108   -3.2389 C   0  0  0  0  0  0  0  0  0  0  0  0
   18.2000   -3.2616   -1.9740 C   0  0  0  0  0  0  0  0  0  0  0  0
   18.8045   -2.0427   -1.2919 C   0  0  0  0  0  0  0  0  0  0  0  0
   18.9603   -0.8826   -2.2554 C   0  0  0  0  0  0  0  0  0  0  0  0
   18.8311    0.2804   -1.8637 O   0  0  0  0  0  0  0  0  0  0  0  0
   19.4635   -1.2030   -3.6590 C   0  0  0  0  0  0  0  0  0  0  0  0
  1  2  1  0
  2  3  1  0
  3  4  1  0
  4  5  2  0
  4  6  1  0
  6  7  2  0
  7  8  1  0
  8  9  2  0
  9 10  1  0
  9 11  1  0
 11 12  2  0
 12 13  1  0
 13 14  1  0
 13 15  1  0
 15 16  2  0
 15 17  1  0
 17 18  1  0
 18 19  1  0
 19 20  2  0
 20 21  1  0
 21 22  2  0
 22 23  1  0
 22 24  1  0
 24 25  2  0
 25 26  1  0
 26 27  1  0
 27 28  1  0
 28 29  1  0
 29 30  1  0
 30 31  2  0
 30 32  1  0
 12  6  1  0
 25 19  1  0
 32 26  1  0
M  END
$$$$
