
     RDKit          3D

 26 28  0  0  0  0  0  0  0  0999 V2000
  -24.8967   15.4084  -12.2652 C   0  0  0  0  0  0  0  0  0  0  0  0
  -23.5531   15.6226  -12.7786 N   0  0  0  0  0  0  0  0  0  0  0  0
  -22.5047   15.1258  -11.8742 C   0  0  0  0  0  0  0  0  0  0  0  0
  -22.3811   13.6161  -11.8253 C   0  0  0  0  0  0  0  0  0  0  0  0
  -23.0971   12.9059  -10.8429 C   0  0  0  0  0  0  0  0  0  0  0  0
  -23.0213   11.5145  -10.7549 C   0  0  0  0  0  0  0  0  0  0  0  0
  -22.2345   10.8084  -11.6568 C   0  0  0  0  0  0  0  0  0  0  0  0
  -22.0508    9.4526  -11.6729 O   0  0  0  0  0  0  0  0  0  0  0  0
  -22.8961    8.6839  -10.8249 C   0  0  0  0  0  0  0  0  0  0  0  0
  -21.5195   11.5070  -12.6348 C   0  0  0  0  0  0  0  0  0  0  0  0
  -21.5573   12.9086  -12.7260 C   0  0  0  0  0  0  0  0  0  0  0  0
  -20.8272   13.5904  -13.6959 N   0  0  0  0  0  0  0  0  0  0  0  0
  -21.5153   13.6459  -14.9970 C   0  0  0  0  0  0  0  0  0  0  0  0
  -20.5696   13.3721  -16.1672 C   0  0  0  0  0  0  0  0  0  0  0  0
  -19.6291   12.2164  -15.8542 C   0  0  0  0  0  0  0  0  0  0  0  0
  -18.8157   12.4468  -14.5704 C   0  0  0  0  0  0  0  0  0  0  0  0
  -19.3494   13.6146  -13.7011 C   0  0  0  0  0  0  0  0  0  0  0  0
  -18.5535   13.9526  -12.5000 N   0  0  0  0  0  0  0  0  0  0  0  0
  -17.2106   14.4555  -12.8088 C   0  0  0  0  0  0  0  0  0  0  0  0
  -16.5689   15.1252  -11.5928 C   0  0  0  0  0  0  0  0  0  0  0  0
  -16.5418   14.1990  -10.3865 C   0  0  0  0  0  0  0  0  0  0  0  0
  -17.9365   13.6487  -10.1079 C   0  0  0  0  0  0  0  0  0  0  0  0
  -18.5862   13.0228  -11.3565 C   0  0  0  0  0  0  0  0  0  0  0  0
  -17.9407   11.6466  -11.6148 C   0  0  0  0  0  0  0  0  0  0  0  0
  -18.5846   10.5833  -11.0388 N   0  0  0  0  0  0  0  0  0  0  0  0
  -16.8964   11.4536  -12.2315 O   0  0  0  0  0  0  0  0  0  0  0  0
  1  2  1  0
  2  3  1  0
  3  4  1  0
  4  5  2  0
  5  6  1  0
  6  7  2  0
  7  8  1  0
  8  9  1  0
  7 10  1  0
 10 11  2  0
 11 12  1  0
 12 13  1  0
 13 14  1  0
 14 15  1  0
 15 16  1  0
 16 17  1  0
 17 18  1  0
 18 19  1  0
 19 20  1  0
 20 21  1  0
 21 22  1  0
 22 23  1  0
 23 24  1  0
 24 25  1  0
 24 26  2  0
 11  4  1  0
 17 12  1  0
 23 18  1  0
M  END
$$$$
