
     RDKit          3D

 19 20  0  0  0  0  0  0  0  0999 V2000
  -14.2284   14.2343   -1.1133 N   0  0  0  0  0  0  0  0  0  0  0  0
  -13.7213   13.7166   -2.3788 C   0  0  0  0  0  0  0  0  0  0  0  0
  -13.6913   14.7956   -3.4510 C   0  0  0  0  0  0  0  0  0  0  0  0
  -15.0834   15.1760   -3.9112 C   0  0  0  0  0  0  0  0  0  0  0  0
  -15.8402   14.3558   -4.4349 O   0  0  0  0  0  0  0  0  0  0  0  0
  -15.5121   16.6030   -3.7214 C   0  0  0  0  0  0  0  0  0  0  0  0
  -15.9477   16.9101   -2.3156 C   0  0  0  0  0  0  0  0  0  0  0  0
  -15.1543   17.3862   -1.5006 O   0  0  0  0  0  0  0  0  0  0  0  0
  -17.3780   16.5942   -1.9389 C   0  0  0  0  0  0  0  0  0  0  0  0
  -17.4700   15.2884   -1.1638 C   0  0  0  0  0  0  0  0  0  0  0  0
  -18.8903   14.9019   -0.8991 C   0  0  0  0  0  0  0  0  0  0  0  0
  -19.6369   15.2218    0.2176 C   0  0  0  0  0  0  0  0  0  0  0  0
  -20.8872   14.6856    0.0660 N   0  0  0  0  0  0  0  0  0  0  0  0
  -20.9789   14.0205   -1.1343 C   0  0  0  0  0  0  0  0  0  0  0  0
  -22.0559   13.3315   -1.7052 C   0  0  0  0  0  0  0  0  0  0  0  0
  -21.8567   12.7412   -2.9568 C   0  0  0  0  0  0  0  0  0  0  0  0
  -20.6295   12.8373   -3.6084 C   0  0  0  0  0  0  0  0  0  0  0  0
  -19.5633   13.5301   -3.0235 C   0  0  0  0  0  0  0  0  0  0  0  0
  -19.7384   14.1351   -1.7616 C   0  0  0  0  0  0  0  0  0  0  0  0
  1  2  1  0
  2  3  1  0
  3  4  1  0
  4  5  2  0
  4  6  1  0
  6  7  1  0
  7  8  2  0
  7  9  1  0
  9 10  1  0
 10 11  1  0
 11 12  2  0
 12 13  1  0
 13 14  1  0
 14 15  2  0
 15 16  1  0
 16 17  2  0
 17 18  1  0
 18 19  2  0
 19 11  1  0
 19 14  1  0
M  END
$$$$
