
     RDKit          3D

 31 34  0  0  0  0  0  0  0  0999 V2000
  -14.4671    9.9188    4.7136 N   0  0  0  0  0  0  0  0  0  0  0  0
  -13.9407    9.2616    6.1669 S   0  0  0  0  0  0  0  0  0  0  0  0
  -12.8168   10.0501    6.6150 O   0  0  0  0  0  0  0  0  0  0  0  0
  -15.1413    9.1393    6.9661 O   0  0  0  0  0  0  0  0  0  0  0  0
  -13.3971    7.6406    5.7154 C   0  0  0  0  0  0  0  0  0  0  0  0
  -14.0919    6.5506    6.2556 C   0  0  0  0  0  0  0  0  0  0  0  0
  -13.6431    5.2786    5.9606 C   0  0  0  0  0  0  0  0  0  0  0  0
  -12.5713    5.0313    5.1827 N   0  0  0  0  0  0  0  0  0  0  0  0
  -11.9262    6.1065    4.6717 C   0  0  0  0  0  0  0  0  0  0  0  0
  -12.2759    7.4448    4.8953 C   0  0  0  0  0  0  0  0  0  0  0  0
  -11.5582    8.5225    4.3290 N   0  0  0  0  0  0  0  0  0  0  0  0
  -11.8524    8.6047    2.8745 C   0  0  0  0  0  0  0  0  0  0  0  0
  -11.1901    9.8314    2.2700 C   0  0  0  0  0  0  0  0  0  0  0  0
  -11.7636   10.5581    1.4594 O   0  0  0  0  0  0  0  0  0  0  0  0
   -9.7351   10.0297    2.6148 C   0  0  0  0  0  0  0  0  0  0  0  0
   -9.5329    9.8877    4.1147 C   0  0  0  0  0  0  0  0  0  0  0  0
  -10.0944    8.5496    4.6467 C   0  0  0  0  0  0  0  0  0  0  0  0
   -9.7881    8.4488    6.1780 C   0  0  0  0  0  0  0  0  0  0  0  0
   -8.3802    8.1015    6.4520 N   0  0  0  0  0  0  0  0  0  0  0  0
   -7.9728    6.8155    6.0096 C   0  0  0  0  0  0  0  0  0  0  0  0
   -8.6480    5.6599    6.3996 C   0  0  0  0  0  0  0  0  0  0  0  0
   -8.2295    4.4434    5.8894 C   0  0  0  0  0  0  0  0  0  0  0  0
   -7.1954    4.3005    5.0372 N   0  0  0  0  0  0  0  0  0  0  0  0
   -6.5328    5.4316    4.6973 C   0  0  0  0  0  0  0  0  0  0  0  0
   -6.8583    6.7137    5.1445 C   0  0  0  0  0  0  0  0  0  0  0  0
   -6.1519    7.8925    4.7904 N   0  0  0  0  0  0  0  0  0  0  0  0
   -5.1323    8.2101    5.8225 C   0  0  0  0  0  0  0  0  0  0  0  0
   -4.0293    9.1212    5.2666 C   0  0  0  0  0  0  0  0  0  0  0  0
   -4.5762   10.1047    4.2394 C   0  0  0  0  0  0  0  0  0  0  0  0
   -5.2781    9.3886    3.0811 C   0  0  0  0  0  0  0  0  0  0  0  0
   -5.6530    7.9413    3.4117 C   0  0  0  0  0  0  0  0  0  0  0  0
  1  2  1  0
  2  3  2  0
  2  4  2  0
  2  5  1  0
  5  6  2  0
  6  7  1  0
  7  8  2  0
  8  9  1  0
  9 10  2  0
 10 11  1  0
 11 12  1  0
 12 13  1  0
 13 14  2  0
 13 15  1  0
 15 16  1  0
 16 17  1  0
 17 18  1  0
 18 19  1  0
 19 20  1  0
 20 21  2  0
 21 22  1  0
 22 23  2  0
 23 24  1  0
 24 25  2  0
 25 26  1  0
 26 27  1  0
 27 28  1  0
 28 29  1  0
 29 30  1  0
 30 31  1  0
 10  5  1  0
 17 11  1  0
 25 20  1  0
 31 26  1  0
M  END
$$$$
