
     RDKit          3D

 17 18  0  0  0  0  0  0  0  0999 V2000
  -59.4844    0.8214   67.8324 N   0  0  0  0  0  0  0  0  0  0  0  0
  -58.3302    1.0520   66.9671 C   0  0  0  0  0  0  0  0  0  0  0  0
  -57.7540   -0.2306   66.3728 C   0  0  0  0  0  0  0  0  0  0  0  0
  -57.0520   -1.1113   67.3918 C   0  0  0  0  0  0  0  0  0  0  0  0
  -57.2134   -0.9817   68.6051 O   0  0  0  0  0  0  0  0  0  0  0  0
  -56.1598   -2.2095   66.8438 C   0  0  0  0  0  0  0  0  0  0  0  0
  -54.6873   -1.9607   67.1575 C   0  0  0  0  0  0  0  0  0  0  0  0
  -54.0855   -0.8566   66.2855 C   0  0  0  0  0  0  0  0  0  0  0  0
  -52.6456   -0.6340   66.5968 C   0  0  0  0  0  0  0  0  0  0  0  0
  -52.1502    0.3246   67.3507 N   0  0  0  0  0  0  0  0  0  0  0  0
  -50.7901    0.1341   67.3484 C   0  0  0  0  0  0  0  0  0  0  0  0
  -49.7797    0.8631   67.9911 C   0  0  0  0  0  0  0  0  0  0  0  0
  -48.4494    0.4568   67.8252 C   0  0  0  0  0  0  0  0  0  0  0  0
  -48.1328   -0.6519   67.0357 C   0  0  0  0  0  0  0  0  0  0  0  0
  -49.1285   -1.3918   66.3863 C   0  0  0  0  0  0  0  0  0  0  0  0
  -50.4452   -0.9642   66.5695 C   0  0  0  0  0  0  0  0  0  0  0  0
  -51.6447   -1.4337   66.1004 N   0  0  0  0  0  0  0  0  0  0  0  0
  1  2  1  0
  2  3  1  0
  3  4  1  0
  4  5  2  0
  4  6  1  0
  6  7  1  0
  7  8  1  0
  8  9  1  0
  9 10  2  0
 10 11  1  0
 11 12  2  0
 12 13  1  0
 13 14  2  0
 14 15  1  0
 15 16  2  0
 16 17  1  0
 17  9  1  0
 16 11  1  0
M  END
$$$$
