
     RDKit          3D

 31 34  0  0  0  0  0  0  0  0999 V2000
  -22.3075    9.0620    2.5289 N   0  0  0  0  0  0  0  0  0  0  0  0
  -23.2493    7.9540    2.6860 C   0  0  0  0  0  0  0  0  0  0  0  0
  -23.4056    7.5302    4.1316 C   0  0  0  0  0  0  0  0  0  0  0  0
  -24.1864    8.3540    4.9734 C   0  0  0  0  0  0  0  0  0  0  0  0
  -24.4434    8.0010    6.2952 C   0  0  0  0  0  0  0  0  0  0  0  0
  -23.9267    6.8128    6.7830 C   0  0  0  0  0  0  0  0  0  0  0  0
  -24.1515    6.4138    8.0673 O   0  0  0  0  0  0  0  0  0  0  0  0
  -23.1522    5.9862    5.9742 C   0  0  0  0  0  0  0  0  0  0  0  0
  -22.8592    6.3286    4.6409 C   0  0  0  0  0  0  0  0  0  0  0  0
  -22.0483    5.5059    3.8514 N   0  0  0  0  0  0  0  0  0  0  0  0
  -20.6502    5.9650    3.6230 C   0  0  0  0  0  0  0  0  0  0  0  0
  -19.8248    6.1162    4.9358 C   0  0  0  0  0  0  0  0  0  0  0  0
  -18.5023    6.7099    4.6814 N   0  0  0  0  0  0  0  0  0  0  0  0
  -17.5675    6.6438    5.7485 C   0  0  0  0  0  0  0  0  0  0  0  0
  -17.9294    6.8585    7.0795 C   0  0  0  0  0  0  0  0  0  0  0  0
  -16.9459    6.8036    8.0547 C   0  0  0  0  0  0  0  0  0  0  0  0
  -15.6413    6.5719    7.8006 N   0  0  0  0  0  0  0  0  0  0  0  0
  -15.3047    6.4054    6.4965 C   0  0  0  0  0  0  0  0  0  0  0  0
  -16.2009    6.4379    5.4252 C   0  0  0  0  0  0  0  0  0  0  0  0
  -15.8308    6.3047    4.0657 N   0  0  0  0  0  0  0  0  0  0  0  0
  -15.7066    7.6190    3.3971 C   0  0  0  0  0  0  0  0  0  0  0  0
  -14.2919    7.8409    2.8686 C   0  0  0  0  0  0  0  0  0  0  0  0
  -13.8602    6.7324    1.9068 C   0  0  0  0  0  0  0  0  0  0  0  0
  -14.4631    5.3734    2.2690 C   0  0  0  0  0  0  0  0  0  0  0  0
  -14.8056    5.2997    3.7564 C   0  0  0  0  0  0  0  0  0  0  0  0
  -19.9398    5.0041    2.6360 C   0  0  0  0  0  0  0  0  0  0  0  0
  -20.9137    4.3119    1.6896 C   0  0  0  0  0  0  0  0  0  0  0  0
  -21.8669    3.4721    2.5114 C   0  0  0  0  0  0  0  0  0  0  0  0
  -22.2487    2.3633    2.1305 O   0  0  0  0  0  0  0  0  0  0  0  0
  -22.2996    4.0659    3.8639 C   0  0  0  0  0  0  0  0  0  0  0  0
  -21.5762    3.4394    4.9048 O   0  0  0  0  0  0  0  0  0  0  0  0
  1  2  1  0
  2  3  1  0
  3  4  2  0
  4  5  1  0
  5  6  2  0
  6  7  1  0
  6  8  1  0
  8  9  2  0
  9 10  1  0
 10 11  1  0
 11 12  1  0
 12 13  1  0
 13 14  1  0
 14 15  2  0
 15 16  1  0
 16 17  2  0
 17 18  1  0
 18 19  2  0
 19 20  1  0
 20 21  1  0
 21 22  1  0
 22 23  1  0
 23 24  1  0
 24 25  1  0
 11 26  1  0
 26 27  1  0
 27 28  1  0
 28 29  2  0
 28 30  1  0
 30 31  1  0
  9  3  1  0
 30 10  1  0
 19 14  1  0
 25 20  1  0
M  END
$$$$
