
     RDKit          3D

 16 17  0  0  0  0  0  0  0  0999 V2000
    2.8820   12.5538    7.7046 N   0  0  0  0  0  0  0  0  0  0  0  0
    1.9777   12.4219    8.8469 C   0  0  0  0  0  0  0  0  0  0  0  0
    0.5650   12.1034    8.3739 C   0  0  0  0  0  0  0  0  0  0  0  0
   -0.3969   11.9491    9.5381 C   0  0  0  0  0  0  0  0  0  0  0  0
   -0.0713   12.2098   10.6956 O   0  0  0  0  0  0  0  0  0  0  0  0
   -1.7931   11.4796    9.1763 C   0  0  0  0  0  0  0  0  0  0  0  0
   -2.6865   11.3339   10.4042 C   0  0  0  0  0  0  0  0  0  0  0  0
   -4.0613   10.8706   10.0380 C   0  0  0  0  0  0  0  0  0  0  0  0
   -4.5104    9.5643   10.0335 C   0  0  0  0  0  0  0  0  0  0  0  0
   -5.8201    9.5607    9.6362 N   0  0  0  0  0  0  0  0  0  0  0  0
   -6.2417   10.8427    9.3732 C   0  0  0  0  0  0  0  0  0  0  0  0
   -7.4884   11.3115    8.9415 C   0  0  0  0  0  0  0  0  0  0  0  0
   -7.6344   12.6895    8.7579 C   0  0  0  0  0  0  0  0  0  0  0  0
   -6.5752   13.5611    8.9981 C   0  0  0  0  0  0  0  0  0  0  0  0
   -5.3354   13.0751    9.4293 C   0  0  0  0  0  0  0  0  0  0  0  0
   -5.1606   11.6889    9.6210 C   0  0  0  0  0  0  0  0  0  0  0  0
  1  2  1  0
  2  3  1  0
  3  4  1  0
  4  5  2  0
  4  6  1  0
  6  7  1  0
  7  8  1  0
  8  9  2  0
  9 10  1  0
 10 11  1  0
 11 12  2  0
 12 13  1  0
 13 14  2  0
 14 15  1  0
 15 16  2  0
 16  8  1  0
 16 11  1  0
M  END
$$$$
