
     RDKit          3D

 24 26  0  0  0  0  0  0  0  0999 V2000
   24.8479   17.8453  -35.4561 N   0  0  0  0  0  0  0  0  0  0  0  0
   25.7332   18.8462  -35.1592 C   0  0  0  0  0  0  0  0  0  0  0  0
   26.9011   18.5603  -34.9291 O   0  0  0  0  0  0  0  0  0  0  0  0
   25.2292   20.2588  -35.2011 C   0  0  0  0  0  0  0  0  0  0  0  0
   23.8481   20.4931  -35.0361 C   0  0  0  0  0  0  0  0  0  0  0  0
   23.3190   21.7831  -35.1230 C   0  0  0  0  0  0  0  0  0  0  0  0
   24.1636   22.8573  -35.3684 C   0  0  0  0  0  0  0  0  0  0  0  0
   23.5133   24.4434  -35.5109 Cl  0  0  0  0  0  0  0  0  0  0  0  0
   25.5364   22.6540  -35.4989 C   0  0  0  0  0  0  0  0  0  0  0  0
   26.0949   21.3611  -35.4017 C   0  0  0  0  0  0  0  0  0  0  0  0
   27.5989   21.2453  -35.5537 C   0  0  0  0  0  0  0  0  0  0  0  0
   28.0233   20.8323  -36.9511 C   0  0  0  0  0  0  0  0  0  0  0  0
   28.1219   21.6377  -37.8764 O   0  0  0  0  0  0  0  0  0  0  0  0
   28.2954   19.4967  -37.0989 N   0  0  0  0  0  0  0  0  0  0  0  0
   28.6390   18.8994  -38.3693 C   0  0  0  0  0  0  0  0  0  0  0  0
   30.0665   19.1604  -38.6948 C   0  0  0  0  0  0  0  0  0  0  0  0
   31.0389   18.2767  -38.8100 N   0  0  0  0  0  0  0  0  0  0  0  0
   32.1590   19.0040  -39.1367 C   0  0  0  0  0  0  0  0  0  0  0  0
   33.4748   18.5733  -39.3567 C   0  0  0  0  0  0  0  0  0  0  0  0
   34.4489   19.5267  -39.6816 C   0  0  0  0  0  0  0  0  0  0  0  0
   34.1192   20.8803  -39.7830 C   0  0  0  0  0  0  0  0  0  0  0  0
   32.8118   21.3309  -39.5606 C   0  0  0  0  0  0  0  0  0  0  0  0
   31.8619   20.3591  -39.2405 C   0  0  0  0  0  0  0  0  0  0  0  0
   30.5245   20.4321  -38.9549 N   0  0  0  0  0  0  0  0  0  0  0  0
  1  2  1  0
  2  3  2  0
  2  4  1  0
  4  5  2  0
  5  6  1  0
  6  7  2  0
  7  8  1  0
  7  9  1  0
  9 10  2  0
 10 11  1  0
 11 12  1  0
 12 13  2  0
 12 14  1  0
 14 15  1  0
 15 16  1  0
 16 17  2  0
 17 18  1  0
 18 19  2  0
 19 20  1  0
 20 21  2  0
 21 22  1  0
 22 23  2  0
 23 24  1  0
 10  4  1  0
 24 16  1  0
 23 18  1  0
M  END
$$$$
