
     RDKit          3D

 19 20  0  0  0  0  0  0  0  0999 V2000
   17.7568    2.4848  -12.1558 N   0  0  0  0  0  0  0  0  0  0  0  0
   17.1175    3.7996  -12.1674 C   0  0  0  0  0  0  0  0  0  0  0  0
   16.4675    4.1466  -10.8353 C   0  0  0  0  0  0  0  0  0  0  0  0
   15.1383    3.4453  -10.6425 C   0  0  0  0  0  0  0  0  0  0  0  0
   14.9804    2.6284   -9.7320 O   0  0  0  0  0  0  0  0  0  0  0  0
   14.0250    3.7745  -11.6227 C   0  0  0  0  0  0  0  0  0  0  0  0
   12.6476    3.5800  -11.0033 C   0  0  0  0  0  0  0  0  0  0  0  0
   12.3779    4.5764   -9.8893 C   0  0  0  0  0  0  0  0  0  0  0  0
   13.1114    5.5497   -9.7013 O   0  0  0  0  0  0  0  0  0  0  0  0
   11.1440    4.3316   -9.0409 C   0  0  0  0  0  0  0  0  0  0  0  0
    9.8937    4.6152   -9.8026 C   0  0  0  0  0  0  0  0  0  0  0  0
    9.3542    5.8623  -10.0442 C   0  0  0  0  0  0  0  0  0  0  0  0
    8.2146    5.7031  -10.7837 N   0  0  0  0  0  0  0  0  0  0  0  0
    8.0011    4.3747  -11.0470 C   0  0  0  0  0  0  0  0  0  0  0  0
    6.9759    3.7561  -11.7721 C   0  0  0  0  0  0  0  0  0  0  0  0
    7.0104    2.3605  -11.8871 C   0  0  0  0  0  0  0  0  0  0  0  0
    8.0305    1.6201  -11.2982 C   0  0  0  0  0  0  0  0  0  0  0  0
    9.0451    2.2547  -10.5712 C   0  0  0  0  0  0  0  0  0  0  0  0
    9.0347    3.6621  -10.4409 C   0  0  0  0  0  0  0  0  0  0  0  0
  1  2  1  0
  2  3  1  0
  3  4  1  0
  4  5  2  0
  4  6  1  0
  6  7  1  0
  7  8  1  0
  8  9  2  0
  8 10  1  0
 10 11  1  0
 11 12  2  0
 12 13  1  0
 13 14  1  0
 14 15  2  0
 15 16  1  0
 16 17  2  0
 17 18  1  0
 18 19  2  0
 19 11  1  0
 19 14  1  0
M  END
$$$$
