
     RDKit          3D

 20 21  0  0  0  0  0  0  0  0999 V2000
   36.2856  -23.9473  -14.7278 C   0  0  0  0  0  0  0  0  0  0  0  0
   34.9340  -23.7457  -15.2331 N   0  0  0  0  0  0  0  0  0  0  0  0
   33.9845  -24.6361  -14.5657 C   0  0  0  0  0  0  0  0  0  0  0  0
   32.5627  -24.4266  -15.0923 C   0  0  0  0  0  0  0  0  0  0  0  0
   32.0190  -23.0265  -14.7921 C   0  0  0  0  0  0  0  0  0  0  0  0
   30.5815  -22.8863  -15.2360 C   0  0  0  0  0  0  0  0  0  0  0  0
   30.2828  -22.4770  -16.5379 C   0  0  0  0  0  0  0  0  0  0  0  0
   28.9573  -22.3638  -16.9443 C   0  0  0  0  0  0  0  0  0  0  0  0
   27.9247  -22.6563  -16.0487 C   0  0  0  0  0  0  0  0  0  0  0  0
   26.6452  -22.4950  -16.5321 O   0  0  0  0  0  0  0  0  0  0  0  0
   26.0625  -21.3080  -15.9929 C   0  0  0  0  0  0  0  0  0  0  0  0
   28.1810  -23.1218  -14.7381 C   0  0  0  0  0  0  0  0  0  0  0  0
   27.1257  -23.4786  -13.8739 N   0  0  0  0  0  0  0  0  0  0  0  0
   26.3731  -24.6567  -14.3339 C   0  0  0  0  0  0  0  0  0  0  0  0
   25.0081  -24.6563  -13.6496 C   0  0  0  0  0  0  0  0  0  0  0  0
   25.1505  -24.7030  -12.1359 C   0  0  0  0  0  0  0  0  0  0  0  0
   26.0814  -23.6149  -11.6472 C   0  0  0  0  0  0  0  0  0  0  0  0
   25.8596  -23.0169  -10.5923 O   0  0  0  0  0  0  0  0  0  0  0  0
   27.3788  -23.4316  -12.4236 C   0  0  0  0  0  0  0  0  0  0  0  0
   29.5313  -23.2077  -14.3545 C   0  0  0  0  0  0  0  0  0  0  0  0
  1  2  1  0
  2  3  1  0
  3  4  1  0
  4  5  1  0
  5  6  1  0
  6  7  2  0
  7  8  1  0
  8  9  2  0
  9 10  1  0
 10 11  1  0
  9 12  1  0
 12 13  1  0
 13 14  1  0
 14 15  1  0
 15 16  1  0
 16 17  1  0
 17 18  2  0
 17 19  1  0
 12 20  2  0
 20  6  1  0
 19 13  1  0
M  END
$$$$
