
     RDKit          3D

 19 20  0  0  0  0  0  0  0  0999 V2000
  -42.6773  -10.5341   17.9909 N   0  0  0  0  0  0  0  0  0  0  0  0
  -42.1703  -11.0517   16.7254 C   0  0  0  0  0  0  0  0  0  0  0  0
  -42.1402   -9.9728   15.6532 C   0  0  0  0  0  0  0  0  0  0  0  0
  -43.5323   -9.5923   15.1930 C   0  0  0  0  0  0  0  0  0  0  0  0
  -44.2891  -10.4125   14.6693 O   0  0  0  0  0  0  0  0  0  0  0  0
  -43.9610   -8.1653   15.3828 C   0  0  0  0  0  0  0  0  0  0  0  0
  -44.3967   -7.8582   16.7886 C   0  0  0  0  0  0  0  0  0  0  0  0
  -43.6032   -7.3822   17.6035 O   0  0  0  0  0  0  0  0  0  0  0  0
  -45.8269   -8.1741   17.1653 C   0  0  0  0  0  0  0  0  0  0  0  0
  -45.9189   -9.4800   17.9403 C   0  0  0  0  0  0  0  0  0  0  0  0
  -47.3392   -9.8664   18.2051 C   0  0  0  0  0  0  0  0  0  0  0  0
  -48.0858   -9.5465   19.3218 C   0  0  0  0  0  0  0  0  0  0  0  0
  -49.3361  -10.0828   19.1702 N   0  0  0  0  0  0  0  0  0  0  0  0
  -49.4279  -10.7478   17.9699 C   0  0  0  0  0  0  0  0  0  0  0  0
  -50.5048  -11.4368   17.3990 C   0  0  0  0  0  0  0  0  0  0  0  0
  -50.3056  -12.0271   16.1474 C   0  0  0  0  0  0  0  0  0  0  0  0
  -49.0784  -11.9310   15.4958 C   0  0  0  0  0  0  0  0  0  0  0  0
  -48.0122  -11.2383   16.0807 C   0  0  0  0  0  0  0  0  0  0  0  0
  -48.1873  -10.6333   17.3425 C   0  0  0  0  0  0  0  0  0  0  0  0
  1  2  1  0
  2  3  1  0
  3  4  1  0
  4  5  2  0
  4  6  1  0
  6  7  1  0
  7  8  2  0
  7  9  1  0
  9 10  1  0
 10 11  1  0
 11 12  2  0
 12 13  1  0
 13 14  1  0
 14 15  2  0
 15 16  1  0
 16 17  2  0
 17 18  1  0
 18 19  2  0
 19 11  1  0
 19 14  1  0
M  END
$$$$
