
     RDKit          3D

 22 24  0  0  0  0  0  0  0  0999 V2000
  -19.2695    1.7608  -18.1129 C   0  0  0  0  0  0  0  0  0  0  0  0
  -18.2388    2.7313  -17.7898 N   0  0  0  0  0  0  0  0  0  0  0  0
  -18.6862    4.1199  -17.9072 C   0  0  0  0  0  0  0  0  0  0  0  0
  -19.6806    4.5403  -16.7962 C   0  0  0  0  0  0  0  0  0  0  0  0
  -20.3569    5.8475  -17.1027 C   0  0  0  0  0  0  0  0  0  0  0  0
  -19.9551    7.0973  -16.6738 C   0  0  0  0  0  0  0  0  0  0  0  0
  -20.8243    8.0260  -17.1760 N   0  0  0  0  0  0  0  0  0  0  0  0
  -21.7958    7.4098  -17.9296 C   0  0  0  0  0  0  0  0  0  0  0  0
  -22.8779    7.9583  -18.6285 C   0  0  0  0  0  0  0  0  0  0  0  0
  -23.7158    7.0785  -19.3197 C   0  0  0  0  0  0  0  0  0  0  0  0
  -23.4788    5.7062  -19.3106 C   0  0  0  0  0  0  0  0  0  0  0  0
  -22.3918    5.1747  -18.6069 C   0  0  0  0  0  0  0  0  0  0  0  0
  -21.5309    6.0403  -17.9007 C   0  0  0  0  0  0  0  0  0  0  0  0
  -17.5329    4.9532  -17.7655 O   0  0  0  0  0  0  0  0  0  0  0  0
  -16.8411    5.1325  -18.9931 C   0  0  0  0  0  0  0  0  0  0  0  0
  -15.6565    5.9690  -18.7941 N   0  0  0  0  0  0  0  0  0  0  0  0
  -15.0390    6.3087  -20.0806 C   0  0  0  0  0  0  0  0  0  0  0  0
  -13.6016    6.8303  -19.9500 C   0  0  0  0  0  0  0  0  0  0  0  0
  -13.3227    7.3994  -18.5672 C   0  0  0  0  0  0  0  0  0  0  0  0
  -13.5839    6.3132  -17.5472 C   0  0  0  0  0  0  0  0  0  0  0  0
  -12.8968    6.2154  -16.5290 O   0  0  0  0  0  0  0  0  0  0  0  0
  -14.7131    5.3371  -17.8595 C   0  0  0  0  0  0  0  0  0  0  0  0
  1  2  1  0
  2  3  1  0
  3  4  1  0
  4  5  1  0
  5  6  2  0
  6  7  1  0
  7  8  1  0
  8  9  2  0
  9 10  1  0
 10 11  2  0
 11 12  1  0
 12 13  2  0
  3 14  1  0
 14 15  1  0
 15 16  1  0
 16 17  1  0
 17 18  1  0
 18 19  1  0
 19 20  1  0
 20 21  2  0
 20 22  1  0
 13  5  1  0
 22 16  1  0
 13  8  1  0
M  END
$$$$
