
     RDKit          3D

 30 33  0  0  0  0  0  0  0  0999 V2000
  -13.5161   16.9991   47.5004 N   0  0  0  0  0  0  0  0  0  0  0  0
  -12.3113   16.3935   47.7266 C   0  0  0  0  0  0  0  0  0  0  0  0
  -11.3910   16.9693   48.2876 O   0  0  0  0  0  0  0  0  0  0  0  0
  -12.1891   14.9996   47.2549 C   0  0  0  0  0  0  0  0  0  0  0  0
  -13.1017   14.0881   47.8087 C   0  0  0  0  0  0  0  0  0  0  0  0
  -12.9667   12.7519   47.4958 C   0  0  0  0  0  0  0  0  0  0  0  0
  -12.0019   12.2803   46.6891 N   0  0  0  0  0  0  0  0  0  0  0  0
  -11.1356   13.1915   46.1766 C   0  0  0  0  0  0  0  0  0  0  0  0
  -11.1593   14.5761   46.3980 C   0  0  0  0  0  0  0  0  0  0  0  0
  -10.2208   15.3783   45.7510 N   0  0  0  0  0  0  0  0  0  0  0  0
  -10.6009   16.6749   45.1667 C   0  0  0  0  0  0  0  0  0  0  0  0
   -9.9645   17.8723   45.8563 C   0  0  0  0  0  0  0  0  0  0  0  0
  -10.4793   18.9930   45.7805 O   0  0  0  0  0  0  0  0  0  0  0  0
   -8.5769   17.6967   46.4344 C   0  0  0  0  0  0  0  0  0  0  0  0
   -8.3760   16.3206   47.0522 C   0  0  0  0  0  0  0  0  0  0  0  0
   -8.7993   15.1746   46.1180 C   0  0  0  0  0  0  0  0  0  0  0  0
   -7.9235   15.0420   44.8386 C   0  0  0  0  0  0  0  0  0  0  0  0
   -6.5403   14.6785   45.1663 N   0  0  0  0  0  0  0  0  0  0  0  0
   -5.6446   14.8022   44.0641 C   0  0  0  0  0  0  0  0  0  0  0  0
   -5.8543   14.1357   42.8587 C   0  0  0  0  0  0  0  0  0  0  0  0
   -4.9294   14.3106   41.8421 C   0  0  0  0  0  0  0  0  0  0  0  0
   -3.8266   15.0832   41.9445 N   0  0  0  0  0  0  0  0  0  0  0  0
   -3.6328   15.7023   43.1336 C   0  0  0  0  0  0  0  0  0  0  0  0
   -4.4917   15.6056   44.2291 C   0  0  0  0  0  0  0  0  0  0  0  0
   -4.2802   16.2389   45.4817 N   0  0  0  0  0  0  0  0  0  0  0  0
   -3.9007   17.6634   45.4138 C   0  0  0  0  0  0  0  0  0  0  0  0
   -2.4725   17.9008   45.8948 C   0  0  0  0  0  0  0  0  0  0  0  0
   -2.2666   17.3903   47.3216 C   0  0  0  0  0  0  0  0  0  0  0  0
   -3.0903   16.1383   47.6270 C   0  0  0  0  0  0  0  0  0  0  0  0
   -3.4494   15.3794   46.3534 C   0  0  0  0  0  0  0  0  0  0  0  0
  1  2  1  0
  2  3  2  0
  2  4  1  0
  4  5  2  0
  5  6  1  0
  6  7  2  0
  7  8  1  0
  8  9  2  0
  9 10  1  0
 10 11  1  0
 11 12  1  0
 12 13  2  0
 12 14  1  0
 14 15  1  0
 15 16  1  0
 16 17  1  0
 17 18  1  0
 18 19  1  0
 19 20  2  0
 20 21  1  0
 21 22  2  0
 22 23  1  0
 23 24  2  0
 24 25  1  0
 25 26  1  0
 26 27  1  0
 27 28  1  0
 28 29  1  0
 29 30  1  0
  9  4  1  0
 16 10  1  0
 24 19  1  0
 30 25  1  0
M  END
$$$$
