
     RDKit          3D

 23 25  0  0  0  0  0  0  0  0999 V2000
    0.5874   10.2678  -36.2386 C   0  0  0  0  0  0  0  0  0  0  0  0
    1.5412    9.2157  -36.2462 O   0  0  0  0  0  0  0  0  0  0  0  0
    2.7945    9.4735  -35.7377 C   0  0  0  0  0  0  0  0  0  0  0  0
    3.1612   10.7084  -35.2021 C   0  0  0  0  0  0  0  0  0  0  0  0
    4.4430   10.9035  -34.6962 C   0  0  0  0  0  0  0  0  0  0  0  0
    5.3969    9.8719  -34.7071 C   0  0  0  0  0  0  0  0  0  0  0  0
    6.7782   10.1872  -34.1721 C   0  0  0  0  0  0  0  0  0  0  0  0
    6.7955   10.2924  -32.7117 N   0  0  0  0  0  0  0  0  0  0  0  0
    5.0561    8.6014  -35.2441 C   0  0  0  0  0  0  0  0  0  0  0  0
    6.0502    7.5920  -35.2144 N   0  0  0  0  0  0  0  0  0  0  0  0
    6.0561    6.8481  -33.9459 C   0  0  0  0  0  0  0  0  0  0  0  0
    6.9413    5.5999  -34.0404 C   0  0  0  0  0  0  0  0  0  0  0  0
    8.1264    5.8121  -34.9747 C   0  0  0  0  0  0  0  0  0  0  0  0
    7.6172    6.1423  -36.3640 C   0  0  0  0  0  0  0  0  0  0  0  0
    8.2755    5.8658  -37.3685 O   0  0  0  0  0  0  0  0  0  0  0  0
    6.2437    6.8007  -36.4359 C   0  0  0  0  0  0  0  0  0  0  0  0
    3.7345    8.3999  -35.7719 C   0  0  0  0  0  0  0  0  0  0  0  0
    3.3770    7.1152  -36.2858 N   0  0  0  0  0  0  0  0  0  0  0  0
    3.0205    7.1243  -37.7185 C   0  0  0  0  0  0  0  0  0  0  0  0
    1.7213    6.3711  -38.0006 C   0  0  0  0  0  0  0  0  0  0  0  0
    1.7126    4.9844  -37.3610 C   0  0  0  0  0  0  0  0  0  0  0  0
    2.2596    4.9835  -35.9314 C   0  0  0  0  0  0  0  0  0  0  0  0
    2.4637    6.3960  -35.3886 C   0  0  0  0  0  0  0  0  0  0  0  0
  1  2  1  0
  2  3  1  0
  3  4  2  0
  4  5  1  0
  5  6  2  0
  6  7  1  0
  7  8  1  0
  6  9  1  0
  9 10  1  0
 10 11  1  0
 11 12  1  0
 12 13  1  0
 13 14  1  0
 14 15  2  0
 14 16  1  0
  9 17  2  0
 17 18  1  0
 18 19  1  0
 19 20  1  0
 20 21  1  0
 21 22  1  0
 22 23  1  0
 17  3  1  0
 23 18  1  0
 16 10  1  0
M  END
$$$$
