
     RDKit          3D

 25 27  0  0  0  0  0  0  0  0999 V2000
   -4.6159    0.4496  -13.4458 N   0  0  0  0  0  0  0  0  0  0  0  0
   -5.2535    0.0009  -14.5670 C   0  0  0  0  0  0  0  0  0  0  0  0
   -5.1983    0.5964  -15.6314 O   0  0  0  0  0  0  0  0  0  0  0  0
   -6.0118   -1.2644  -14.4220 C   0  0  0  0  0  0  0  0  0  0  0  0
   -6.9487   -1.3547  -13.3787 C   0  0  0  0  0  0  0  0  0  0  0  0
   -7.7137   -2.5100  -13.2236 C   0  0  0  0  0  0  0  0  0  0  0  0
   -7.5443   -3.5641  -14.1114 C   0  0  0  0  0  0  0  0  0  0  0  0
   -8.2771   -4.6747  -13.9629 F   0  0  0  0  0  0  0  0  0  0  0  0
   -6.6192   -3.4902  -15.1497 C   0  0  0  0  0  0  0  0  0  0  0  0
   -5.8312   -2.3377  -15.3201 C   0  0  0  0  0  0  0  0  0  0  0  0
   -4.7891   -2.3155  -16.4221 C   0  0  0  0  0  0  0  0  0  0  0  0
   -3.3511   -2.3229  -15.9212 C   0  0  0  0  0  0  0  0  0  0  0  0
   -2.4771   -1.6194  -16.4199 O   0  0  0  0  0  0  0  0  0  0  0  0
   -3.0876   -3.2231  -14.9080 N   0  0  0  0  0  0  0  0  0  0  0  0
   -1.7813   -3.2988  -14.2780 C   0  0  0  0  0  0  0  0  0  0  0  0
   -1.5612   -2.1610  -13.2777 C   0  0  0  0  0  0  0  0  0  0  0  0
   -0.2783   -2.3059  -12.5250 C   0  0  0  0  0  0  0  0  0  0  0  0
    0.9314   -1.7280  -12.8570 C   0  0  0  0  0  0  0  0  0  0  0  0
    1.8592   -2.1038  -11.9244 N   0  0  0  0  0  0  0  0  0  0  0  0
    1.2814   -2.9211  -10.9814 C   0  0  0  0  0  0  0  0  0  0  0  0
    1.8433   -3.5370   -9.8565 C   0  0  0  0  0  0  0  0  0  0  0  0
    1.0055   -4.3264   -9.0636 C   0  0  0  0  0  0  0  0  0  0  0  0
   -0.3394   -4.4915   -9.3849 C   0  0  0  0  0  0  0  0  0  0  0  0
   -0.8849   -3.8682  -10.5134 C   0  0  0  0  0  0  0  0  0  0  0  0
   -0.0616   -3.0660  -11.3306 C   0  0  0  0  0  0  0  0  0  0  0  0
  1  2  1  0
  2  3  2  0
  2  4  1  0
  4  5  2  0
  5  6  1  0
  6  7  2  0
  7  8  1  0
  7  9  1  0
  9 10  2  0
 10 11  1  0
 11 12  1  0
 12 13  2  0
 12 14  1  0
 14 15  1  0
 15 16  1  0
 16 17  1  0
 17 18  2  0
 18 19  1  0
 19 20  1  0
 20 21  2  0
 21 22  1  0
 22 23  2  0
 23 24  1  0
 24 25  2  0
 10  4  1  0
 25 17  1  0
 25 20  1  0
M  END
$$$$
