
     RDKit          3D

 26 28  0  0  0  0  0  0  0  0999 V2000
  -30.1384  -33.0512   32.7166 C   0  0  0  0  0  0  0  0  0  0  0  0
  -29.5913  -32.0470   31.8418 N   0  0  0  0  0  0  0  0  0  0  0  0
  -28.6207  -31.1745   32.2789 C   0  0  0  0  0  0  0  0  0  0  0  0
  -28.1011  -31.2398   33.3826 O   0  0  0  0  0  0  0  0  0  0  0  0
  -28.2233  -30.1461   31.2410 C   0  0  0  0  0  0  0  0  0  0  0  0
  -28.9226  -28.8193   31.4278 C   0  0  0  0  0  0  0  0  0  0  0  0
  -28.3152  -27.8779   32.2771 C   0  0  0  0  0  0  0  0  0  0  0  0
  -28.8973  -26.6317   32.5092 C   0  0  0  0  0  0  0  0  0  0  0  0
  -30.0981  -26.3049   31.8924 C   0  0  0  0  0  0  0  0  0  0  0  0
  -30.7703  -25.1207   32.0188 O   0  0  0  0  0  0  0  0  0  0  0  0
  -30.1526  -24.1180   32.8162 C   0  0  0  0  0  0  0  0  0  0  0  0
  -30.7173  -27.2416   31.0591 C   0  0  0  0  0  0  0  0  0  0  0  0
  -30.1628  -28.5133   30.8226 C   0  0  0  0  0  0  0  0  0  0  0  0
  -30.7821  -29.4592   29.9564 N   0  0  0  0  0  0  0  0  0  0  0  0
  -30.2979  -29.1944   28.5739 C   0  0  0  0  0  0  0  0  0  0  0  0
  -30.8137  -30.2242   27.5756 C   0  0  0  0  0  0  0  0  0  0  0  0
  -30.2604  -30.3792   26.4708 O   0  0  0  0  0  0  0  0  0  0  0  0
  -32.1410  -30.9059   27.8524 C   0  0  0  0  0  0  0  0  0  0  0  0
  -32.6107  -30.8692   29.3049 C   0  0  0  0  0  0  0  0  0  0  0  0
  -32.2709  -29.5267   29.9958 C   0  0  0  0  0  0  0  0  0  0  0  0
  -33.0159  -29.3559   31.2437 N   0  0  0  0  0  0  0  0  0  0  0  0
  -34.4137  -28.9793   31.0961 C   0  0  0  0  0  0  0  0  0  0  0  0
  -34.9509  -28.4742   32.4340 C   0  0  0  0  0  0  0  0  0  0  0  0
  -34.7805  -29.4905   33.5634 C   0  0  0  0  0  0  0  0  0  0  0  0
  -33.9451  -30.6940   33.1433 C   0  0  0  0  0  0  0  0  0  0  0  0
  -32.7169  -30.2903   32.3245 C   0  0  0  0  0  0  0  0  0  0  0  0
  1  2  1  0
  2  3  1  0
  3  4  2  0
  3  5  1  0
  5  6  1  0
  6  7  2  0
  7  8  1  0
  8  9  2  0
  9 10  1  0
 10 11  1  0
  9 12  1  0
 12 13  2  0
 13 14  1  0
 14 15  1  0
 15 16  1  0
 16 17  2  0
 16 18  1  0
 18 19  1  0
 19 20  1  0
 20 21  1  0
 21 22  1  0
 22 23  1  0
 23 24  1  0
 24 25  1  0
 25 26  1  0
 13  6  1  0
 20 14  1  0
 26 21  1  0
M  END
$$$$
