
     RDKit          3D

 19 20  0  0  0  0  0  0  0  0999 V2000
  -31.4010   23.3094   10.2682 C   0  0  0  0  0  0  0  0  0  0  0  0
  -31.6578   22.3968    9.1875 N   0  0  0  0  0  0  0  0  0  0  0  0
  -30.6157   21.8068    8.5040 C   0  0  0  0  0  0  0  0  0  0  0  0
  -29.4372   22.1187    8.6508 O   0  0  0  0  0  0  0  0  0  0  0  0
  -31.0669   20.7361    7.5314 C   0  0  0  0  0  0  0  0  0  0  0  0
  -31.2239   19.3792    8.1815 C   0  0  0  0  0  0  0  0  0  0  0  0
  -30.1783   18.4496    8.0350 C   0  0  0  0  0  0  0  0  0  0  0  0
  -30.2632   17.1733    8.5930 C   0  0  0  0  0  0  0  0  0  0  0  0
  -31.4000   16.8038    9.3015 C   0  0  0  0  0  0  0  0  0  0  0  0
  -31.6272   15.5840    9.8796 O   0  0  0  0  0  0  0  0  0  0  0  0
  -30.5897   14.6178    9.7673 C   0  0  0  0  0  0  0  0  0  0  0  0
  -32.4374   17.7293    9.4633 C   0  0  0  0  0  0  0  0  0  0  0  0
  -32.3646   19.0331    8.9397 C   0  0  0  0  0  0  0  0  0  0  0  0
  -33.4117   19.9738    9.1091 N   0  0  0  0  0  0  0  0  0  0  0  0
  -34.4509   19.7909    8.0814 C   0  0  0  0  0  0  0  0  0  0  0  0
  -35.2845   21.0725    7.9960 C   0  0  0  0  0  0  0  0  0  0  0  0
  -35.4999   21.7437    9.3556 C   0  0  0  0  0  0  0  0  0  0  0  0
  -35.3271   20.7582   10.5038 C   0  0  0  0  0  0  0  0  0  0  0  0
  -33.9525   20.0749   10.4872 C   0  0  0  0  0  0  0  0  0  0  0  0
  1  2  1  0
  2  3  1  0
  3  4  2  0
  3  5  1  0
  5  6  1  0
  6  7  2  0
  7  8  1  0
  8  9  2  0
  9 10  1  0
 10 11  1  0
  9 12  1  0
 12 13  2  0
 13 14  1  0
 14 15  1  0
 15 16  1  0
 16 17  1  0
 17 18  1  0
 18 19  1  0
 13  6  1  0
 19 14  1  0
M  END
$$$$
