
     RDKit          3D

 16 17  0  0  0  0  0  0  0  0999 V2000
   -0.6535   18.9865    1.8420 N   0  0  0  0  0  0  0  0  0  0  0  0
   -0.0919   17.8957    2.6272 C   0  0  0  0  0  0  0  0  0  0  0  0
   -1.1883   17.2080    3.4377 C   0  0  0  0  0  0  0  0  0  0  0  0
   -0.6058   16.1259    4.3378 C   0  0  0  0  0  0  0  0  0  0  0  0
   -1.6733   15.2374    4.9459 C   0  0  0  0  0  0  0  0  0  0  0  0
   -1.7220   14.0377    4.6589 O   0  0  0  0  0  0  0  0  0  0  0  0
   -2.6490   15.8617    5.9267 C   0  0  0  0  0  0  0  0  0  0  0  0
   -3.9548   16.2051    5.2887 C   0  0  0  0  0  0  0  0  0  0  0  0
   -4.8217   15.3191    4.6766 C   0  0  0  0  0  0  0  0  0  0  0  0
   -5.9066   16.0155    4.2220 N   0  0  0  0  0  0  0  0  0  0  0  0
   -5.7791   17.3482    4.5333 C   0  0  0  0  0  0  0  0  0  0  0  0
   -6.6413   18.4197    4.2705 C   0  0  0  0  0  0  0  0  0  0  0  0
   -6.2534   19.6876    4.7113 C   0  0  0  0  0  0  0  0  0  0  0  0
   -5.0517   19.8731    5.3890 C   0  0  0  0  0  0  0  0  0  0  0  0
   -4.2020   18.7903    5.6446 C   0  0  0  0  0  0  0  0  0  0  0  0
   -4.5666   17.4992    5.2080 C   0  0  0  0  0  0  0  0  0  0  0  0
  1  2  1  0
  2  3  1  0
  3  4  1  0
  4  5  1  0
  5  6  2  0
  5  7  1  0
  7  8  1  0
  8  9  2  0
  9 10  1  0
 10 11  1  0
 11 12  2  0
 12 13  1  0
 13 14  2  0
 14 15  1  0
 15 16  2  0
 16  8  1  0
 16 11  1  0
M  END
$$$$
