
     RDKit          3D

 25 28  0  0  0  0  0  0  0  0999 V2000
  -44.1428   18.9175    6.2511 N   0  0  0  0  0  0  0  0  0  0  0  0
  -45.0913   18.3112    7.1926 C   0  0  0  0  0  0  0  0  0  0  0  0
  -46.5456   18.7298    6.9499 C   0  0  0  0  0  0  0  0  0  0  0  0
  -47.0553   18.1868    5.7428 O   0  0  0  0  0  0  0  0  0  0  0  0
  -47.2509   18.1787    8.1847 C   0  0  0  0  0  0  0  0  0  0  0  0
  -46.2101   18.2389    9.3192 C   0  0  0  0  0  0  0  0  0  0  0  0
  -44.9017   18.7424    8.6678 C   0  0  0  0  0  0  0  0  0  0  0  0
  -43.6286   18.4240    9.3439 N   0  0  0  0  0  0  0  0  0  0  0  0
  -43.5125   19.0267   10.6742 C   0  0  0  0  0  0  0  0  0  0  0  0
  -43.9307   18.1066   11.8166 C   0  0  0  0  0  0  0  0  0  0  0  0
  -43.1861   16.7772   11.8047 C   0  0  0  0  0  0  0  0  0  0  0  0
  -42.3701   16.5793   10.5324 C   0  0  0  0  0  0  0  0  0  0  0  0
  -43.1456   17.0400    9.2704 C   0  0  0  0  0  0  0  0  0  0  0  0
  -42.4328   16.8288    7.9832 N   0  0  0  0  0  0  0  0  0  0  0  0
  -42.7366   15.4467    7.5249 C   0  0  0  0  0  0  0  0  0  0  0  0
  -42.2182   15.1735    6.1188 C   0  0  0  0  0  0  0  0  0  0  0  0
  -40.7081   15.3451    6.0727 C   0  0  0  0  0  0  0  0  0  0  0  0
  -40.3332   16.7237    6.5958 C   0  0  0  0  0  0  0  0  0  0  0  0
  -40.9549   17.0283    7.9919 C   0  0  0  0  0  0  0  0  0  0  0  0
  -40.5498   18.3517    8.4751 N   0  0  0  0  0  0  0  0  0  0  0  0
  -39.2351   18.4228    9.1006 C   0  0  0  0  0  0  0  0  0  0  0  0
  -38.0952   18.9499    8.2131 C   0  0  0  0  0  0  0  0  0  0  0  0
  -38.5447   19.9770    7.1766 C   0  0  0  0  0  0  0  0  0  0  0  0
  -39.8646   20.6090    7.6041 C   0  0  0  0  0  0  0  0  0  0  0  0
  -40.9432   19.5276    7.7023 C   0  0  0  0  0  0  0  0  0  0  0  0
  1  2  1  0
  2  3  1  0
  3  4  1  0
  3  5  1  0
  5  6  1  0
  6  7  1  0
  7  8  1  0
  8  9  1  0
  9 10  1  0
 10 11  1  0
 11 12  1  0
 12 13  1  0
 13 14  1  0
 14 15  1  0
 15 16  1  0
 16 17  1  0
 17 18  1  0
 18 19  1  0
 19 20  1  0
 20 21  1  0
 21 22  1  0
 22 23  1  0
 23 24  1  0
 24 25  1  0
  7  2  1  0
 13  8  1  0
 19 14  1  0
 25 20  1  0
M  END
$$$$
