
     RDKit          3D

 26 28  0  0  0  0  0  0  0  0999 V2000
   25.1162  -13.1314  -48.2689 C   0  0  0  0  0  0  0  0  0  0  0  0
   25.6632  -12.1273  -49.1437 N   0  0  0  0  0  0  0  0  0  0  0  0
   26.6338  -11.2547  -48.7066 C   0  0  0  0  0  0  0  0  0  0  0  0
   27.1534  -11.3201  -47.6029 O   0  0  0  0  0  0  0  0  0  0  0  0
   27.0312  -10.2264  -49.7445 C   0  0  0  0  0  0  0  0  0  0  0  0
   26.3319   -8.8996  -49.5577 C   0  0  0  0  0  0  0  0  0  0  0  0
   26.9393   -7.9582  -48.7084 C   0  0  0  0  0  0  0  0  0  0  0  0
   26.3572   -6.7120  -48.4763 C   0  0  0  0  0  0  0  0  0  0  0  0
   25.1565   -6.3852  -49.0931 C   0  0  0  0  0  0  0  0  0  0  0  0
   24.4842   -5.2010  -48.9667 O   0  0  0  0  0  0  0  0  0  0  0  0
   25.1019   -4.1983  -48.1693 C   0  0  0  0  0  0  0  0  0  0  0  0
   24.5373   -7.3218  -49.9264 C   0  0  0  0  0  0  0  0  0  0  0  0
   25.0917   -8.5936  -50.1629 C   0  0  0  0  0  0  0  0  0  0  0  0
   24.4724   -9.5395  -51.0291 N   0  0  0  0  0  0  0  0  0  0  0  0
   24.9567   -9.2747  -52.4116 C   0  0  0  0  0  0  0  0  0  0  0  0
   24.4409  -10.3045  -53.4099 C   0  0  0  0  0  0  0  0  0  0  0  0
   24.9941  -10.4594  -54.5147 O   0  0  0  0  0  0  0  0  0  0  0  0
   23.1135  -10.9862  -53.1331 C   0  0  0  0  0  0  0  0  0  0  0  0
   22.6438  -10.9495  -51.6806 C   0  0  0  0  0  0  0  0  0  0  0  0
   22.9837   -9.6070  -50.9897 C   0  0  0  0  0  0  0  0  0  0  0  0
   22.2386   -9.4361  -49.7417 N   0  0  0  0  0  0  0  0  0  0  0  0
   20.8409   -9.0596  -49.8894 C   0  0  0  0  0  0  0  0  0  0  0  0
   20.3036   -8.5545  -48.5515 C   0  0  0  0  0  0  0  0  0  0  0  0
   20.4741   -9.5707  -47.4221 C   0  0  0  0  0  0  0  0  0  0  0  0
   21.3094  -10.7743  -47.8422 C   0  0  0  0  0  0  0  0  0  0  0  0
   22.5377  -10.3706  -48.6610 C   0  0  0  0  0  0  0  0  0  0  0  0
  1  2  1  0
  2  3  1  0
  3  4  2  0
  3  5  1  0
  5  6  1  0
  6  7  2  0
  7  8  1  0
  8  9  2  0
  9 10  1  0
 10 11  1  0
  9 12  1  0
 12 13  2  0
 13 14  1  0
 14 15  1  0
 15 16  1  0
 16 17  2  0
 16 18  1  0
 18 19  1  0
 19 20  1  0
 20 21  1  0
 21 22  1  0
 22 23  1  0
 23 24  1  0
 24 25  1  0
 25 26  1  0
 13  6  1  0
 20 14  1  0
 26 21  1  0
M  END
$$$$
