
     RDKit          3D

 18 19  0  0  0  0  0  0  0  0999 V2000
   11.9119   11.0882   -9.3339 C   0  0  0  0  0  0  0  0  0  0  0  0
   12.2300   10.0172   -8.4553 O   0  0  0  0  0  0  0  0  0  0  0  0
   12.6264    8.8084   -9.1221 C   0  0  0  0  0  0  0  0  0  0  0  0
   13.3090    7.9387   -8.0516 C   0  0  0  0  0  0  0  0  0  0  0  0
   13.8935    6.6111   -8.5379 C   0  0  0  0  0  0  0  0  0  0  0  0
   14.9181    6.7533   -9.6181 C   0  0  0  0  0  0  0  0  0  0  0  0
   14.7547    6.4225  -10.9499 C   0  0  0  0  0  0  0  0  0  0  0  0
   15.9221    6.6990  -11.6094 N   0  0  0  0  0  0  0  0  0  0  0  0
   16.8556    7.2015  -10.7345 C   0  0  0  0  0  0  0  0  0  0  0  0
   18.1736    7.6152  -10.9628 C   0  0  0  0  0  0  0  0  0  0  0  0
   18.9036    8.0870   -9.8682 C   0  0  0  0  0  0  0  0  0  0  0  0
   18.3361    8.1405   -8.5978 C   0  0  0  0  0  0  0  0  0  0  0  0
   17.0170    7.7221   -8.3878 C   0  0  0  0  0  0  0  0  0  0  0  0
   16.2570    7.2437   -9.4752 C   0  0  0  0  0  0  0  0  0  0  0  0
   11.4575    8.1348   -9.8523 C   0  0  0  0  0  0  0  0  0  0  0  0
   10.2223    7.9368   -9.0039 C   0  0  0  0  0  0  0  0  0  0  0  0
   10.2119    6.8350   -8.2023 N   0  0  0  0  0  0  0  0  0  0  0  0
    9.2567    8.6927   -9.0341 O   0  0  0  0  0  0  0  0  0  0  0  0
  1  2  1  0
  2  3  1  0
  3  4  1  0
  4  5  1  0
  5  6  1  0
  6  7  2  0
  7  8  1  0
  8  9  1  0
  9 10  2  0
 10 11  1  0
 11 12  2  0
 12 13  1  0
 13 14  2  0
  3 15  1  0
 15 16  1  0
 16 17  1  0
 16 18  2  0
 14  6  1  0
 14  9  1  0
M  END
$$$$
