
     RDKit          3D

 16 17  0  0  0  0  0  0  0  0999 V2000
    6.4388   13.0645   11.1048 N   0  0  0  0  0  0  0  0  0  0  0  0
    5.5346   12.9326   12.2471 C   0  0  0  0  0  0  0  0  0  0  0  0
    4.1218   12.6142   11.7741 C   0  0  0  0  0  0  0  0  0  0  0  0
    3.1599   12.4598   12.9383 C   0  0  0  0  0  0  0  0  0  0  0  0
    3.4855   12.7205   14.0958 O   0  0  0  0  0  0  0  0  0  0  0  0
    1.7638   11.9904   12.5765 C   0  0  0  0  0  0  0  0  0  0  0  0
    0.8703   11.8446   13.8044 C   0  0  0  0  0  0  0  0  0  0  0  0
   -0.5045   11.3813   13.4382 C   0  0  0  0  0  0  0  0  0  0  0  0
   -0.9535   10.0750   13.4337 C   0  0  0  0  0  0  0  0  0  0  0  0
   -2.2632   10.0714   13.0364 N   0  0  0  0  0  0  0  0  0  0  0  0
   -2.6849   11.3534   12.7734 C   0  0  0  0  0  0  0  0  0  0  0  0
   -3.9316   11.8222   12.3417 C   0  0  0  0  0  0  0  0  0  0  0  0
   -4.0776   13.2003   12.1581 C   0  0  0  0  0  0  0  0  0  0  0  0
   -3.0183   14.0719   12.3983 C   0  0  0  0  0  0  0  0  0  0  0  0
   -1.7785   13.5858   12.8295 C   0  0  0  0  0  0  0  0  0  0  0  0
   -1.6038   12.1996   13.0212 C   0  0  0  0  0  0  0  0  0  0  0  0
  1  2  1  0
  2  3  1  0
  3  4  1  0
  4  5  2  0
  4  6  1  0
  6  7  1  0
  7  8  1  0
  8  9  2  0
  9 10  1  0
 10 11  1  0
 11 12  2  0
 12 13  1  0
 13 14  2  0
 14 15  1  0
 15 16  2  0
 16  8  1  0
 16 11  1  0
M  END
$$$$
