
     RDKit          3D

 28 31  0  0  0  0  0  0  0  0999 V2000
   -8.3792    9.4586   20.4758 N   0  0  0  0  0  0  0  0  0  0  0  0
   -7.5153    9.7654   21.6151 C   0  0  0  0  0  0  0  0  0  0  0  0
   -7.1131   11.2245   21.6427 C   0  0  0  0  0  0  0  0  0  0  0  0
   -7.6808   12.0482   22.6357 C   0  0  0  0  0  0  0  0  0  0  0  0
   -7.3893   13.4078   22.6905 C   0  0  0  0  0  0  0  0  0  0  0  0
   -6.5335   13.9562   21.7506 C   0  0  0  0  0  0  0  0  0  0  0  0
   -6.2667   15.2918   21.8371 O   0  0  0  0  0  0  0  0  0  0  0  0
   -5.9675   13.1665   20.7521 C   0  0  0  0  0  0  0  0  0  0  0  0
   -6.2410   11.7889   20.6780 C   0  0  0  0  0  0  0  0  0  0  0  0
   -5.6781   10.9873   19.6750 N   0  0  0  0  0  0  0  0  0  0  0  0
   -5.7554   11.4733   18.2924 C   0  0  0  0  0  0  0  0  0  0  0  0
   -5.2183   10.4261   17.3108 C   0  0  0  0  0  0  0  0  0  0  0  0
   -5.2318    9.0222   17.8996 C   0  0  0  0  0  0  0  0  0  0  0  0
   -4.4250    8.9406   19.2012 C   0  0  0  0  0  0  0  0  0  0  0  0
   -4.4689   10.2284   20.0570 C   0  0  0  0  0  0  0  0  0  0  0  0
   -3.1843   11.0786   19.9271 C   0  0  0  0  0  0  0  0  0  0  0  0
   -1.9952   10.4477   20.6614 C   0  0  0  0  0  0  0  0  0  0  0  0
   -0.8105   11.2903   20.4914 N   0  0  0  0  0  0  0  0  0  0  0  0
    0.3547   10.7022   21.1717 C   0  0  0  0  0  0  0  0  0  0  0  0
    1.6154   11.5018   20.9537 C   0  0  0  0  0  0  0  0  0  0  0  0
    2.2422   12.0607   22.0383 N   0  0  0  0  0  0  0  0  0  0  0  0
    3.3733   12.7729   21.8387 C   0  0  0  0  0  0  0  0  0  0  0  0
    4.0126   13.0121   20.6766 N   0  0  0  0  0  0  0  0  0  0  0  0
    3.3647   12.4371   19.6542 C   0  0  0  0  0  0  0  0  0  0  0  0
    3.7198   12.4728   18.3376 N   0  0  0  0  0  0  0  0  0  0  0  0
    2.7874   11.7545   17.6398 C   0  0  0  0  0  0  0  0  0  0  0  0
    1.8538   11.2628   18.4279 N   0  0  0  0  0  0  0  0  0  0  0  0
    2.2020   11.6864   19.6943 C   0  0  0  0  0  0  0  0  0  0  0  0
  1  2  1  0
  2  3  1  0
  3  4  2  0
  4  5  1  0
  5  6  2  0
  6  7  1  0
  6  8  1  0
  8  9  2  0
  9 10  1  0
 10 11  1  0
 11 12  1  0
 12 13  1  0
 13 14  1  0
 14 15  1  0
 15 16  1  0
 16 17  1  0
 17 18  1  0
 18 19  1  0
 19 20  1  0
 20 21  2  0
 21 22  1  0
 22 23  2  0
 23 24  1  0
 24 25  1  0
 25 26  1  0
 26 27  2  0
 27 28  1  0
  9  3  1  0
 15 10  1  0
 28 20  1  0
 28 24  2  0
M  END
$$$$
