
     RDKit          3D

 30 33  0  0  0  0  0  0  0  0999 V2000
  -10.8225   12.8231  -18.5975 N   0  0  0  0  0  0  0  0  0  0  0  0
  -11.0844   12.2103  -17.2971 C   0  0  0  0  0  0  0  0  0  0  0  0
  -10.6182   13.0780  -16.1508 C   0  0  0  0  0  0  0  0  0  0  0  0
  -11.3253   14.2679  -15.8777 C   0  0  0  0  0  0  0  0  0  0  0  0
  -10.9450   15.1137  -14.8332 C   0  0  0  0  0  0  0  0  0  0  0  0
   -9.8509   14.7735  -14.0528 C   0  0  0  0  0  0  0  0  0  0  0  0
   -9.4378   15.5654  -13.0195 O   0  0  0  0  0  0  0  0  0  0  0  0
   -9.1353   13.6065  -14.2979 C   0  0  0  0  0  0  0  0  0  0  0  0
   -9.5072   12.7370  -15.3428 C   0  0  0  0  0  0  0  0  0  0  0  0
   -8.7885   11.5316  -15.6003 N   0  0  0  0  0  0  0  0  0  0  0  0
   -7.3712   11.8010  -16.0205 C   0  0  0  0  0  0  0  0  0  0  0  0
   -7.2794   12.7710  -17.2519 C   0  0  0  0  0  0  0  0  0  0  0  0
   -5.9049   13.1198  -17.6531 N   0  0  0  0  0  0  0  0  0  0  0  0
   -5.4920   12.4716  -18.9026 C   0  0  0  0  0  0  0  0  0  0  0  0
   -3.9708   12.5690  -19.1273 C   0  0  0  0  0  0  0  0  0  0  0  0
   -3.1856   11.7122  -18.1749 C   0  0  0  0  0  0  0  0  0  0  0  0
   -2.8426   10.3848  -18.3638 C   0  0  0  0  0  0  0  0  0  0  0  0
   -2.1707    9.9521  -17.2518 N   0  0  0  0  0  0  0  0  0  0  0  0
   -2.0714   10.9664  -16.3287 C   0  0  0  0  0  0  0  0  0  0  0  0
   -1.4944   10.9716  -15.0543 C   0  0  0  0  0  0  0  0  0  0  0  0
   -1.5185   12.1713  -14.3391 C   0  0  0  0  0  0  0  0  0  0  0  0
   -2.0928   13.3192  -14.8805 C   0  0  0  0  0  0  0  0  0  0  0  0
   -2.6674   13.2949  -16.1541 C   0  0  0  0  0  0  0  0  0  0  0  0
   -2.6666   12.0943  -16.8947 C   0  0  0  0  0  0  0  0  0  0  0  0
   -6.6991   10.4540  -16.3693 C   0  0  0  0  0  0  0  0  0  0  0  0
   -6.7288    9.4776  -15.2063 C   0  0  0  0  0  0  0  0  0  0  0  0
   -8.1574    9.2915  -14.7770 C   0  0  0  0  0  0  0  0  0  0  0  0
   -8.6478    8.1676  -14.6622 O   0  0  0  0  0  0  0  0  0  0  0  0
   -8.9021   10.6022  -14.4541 C   0  0  0  0  0  0  0  0  0  0  0  0
  -10.2649   10.3360  -14.2007 O   0  0  0  0  0  0  0  0  0  0  0  0
  1  2  1  0
  2  3  1  0
  3  4  2  0
  4  5  1  0
  5  6  2  0
  6  7  1  0
  6  8  1  0
  8  9  2  0
  9 10  1  0
 10 11  1  0
 11 12  1  0
 12 13  1  0
 13 14  1  0
 14 15  1  0
 15 16  1  0
 16 17  2  0
 17 18  1  0
 18 19  1  0
 19 20  2  0
 20 21  1  0
 21 22  2  0
 22 23  1  0
 23 24  2  0
 11 25  1  0
 25 26  1  0
 26 27  1  0
 27 28  2  0
 27 29  1  0
 29 30  1  0
  9  3  1  0
 29 10  1  0
 24 16  1  0
 24 19  1  0
M  END
$$$$
