
     RDKit          3D

 26 28  0  0  0  0  0  0  0  0999 V2000
   62.7545   37.1365   36.1073 N   0  0  0  0  0  0  0  0  0  0  0  0
   61.6650   37.2988   37.0630 C   0  0  0  0  0  0  0  0  0  0  0  0
   60.3982   37.7638   36.3895 C   0  0  0  0  0  0  0  0  0  0  0  0
   60.3697   38.9716   35.6801 C   0  0  0  0  0  0  0  0  0  0  0  0
   59.1876   39.4171   35.0822 C   0  0  0  0  0  0  0  0  0  0  0  0
   58.0142   38.6659   35.1749 C   0  0  0  0  0  0  0  0  0  0  0  0
   56.9284   39.2266   34.5588 O   0  0  0  0  0  0  0  0  0  0  0  0
   55.8001   38.4029   34.3112 C   0  0  0  0  0  0  0  0  0  0  0  0
   54.7976   38.2989   35.4566 C   0  0  0  0  0  0  0  0  0  0  0  0
   54.9740   38.6795   36.6056 O   0  0  0  0  0  0  0  0  0  0  0  0
   53.6721   37.6779   35.0074 O   0  0  0  0  0  0  0  0  0  0  0  0
   52.6638   37.4471   36.0025 C   0  0  0  0  0  0  0  0  0  0  0  0
   53.0069   36.1773   36.7979 C   0  0  0  0  0  0  0  0  0  0  0  0
   53.0666   34.9359   35.9040 C   0  0  0  0  0  0  0  0  0  0  0  0
   52.0357   34.9777   34.7736 C   0  0  0  0  0  0  0  0  0  0  0  0
   50.8764   35.9075   35.1180 C   0  0  0  0  0  0  0  0  0  0  0  0
   51.3799   37.2751   35.2881 N   0  0  0  0  0  0  0  0  0  0  0  0
   50.4239   38.2478   35.6569 C   0  0  0  0  0  0  0  0  0  0  0  0
   49.4454   38.0581   36.6365 C   0  0  0  0  0  0  0  0  0  0  0  0
   48.5643   39.0026   37.0500 N   0  0  0  0  0  0  0  0  0  0  0  0
   48.6460   40.2053   36.4444 C   0  0  0  0  0  0  0  0  0  0  0  0
   49.5692   40.5127   35.4588 C   0  0  0  0  0  0  0  0  0  0  0  0
   50.4874   39.5353   35.0789 C   0  0  0  0  0  0  0  0  0  0  0  0
   51.3464   39.7716   33.9849 N   0  0  0  0  0  0  0  0  0  0  0  0
   58.0323   37.4654   35.8857 C   0  0  0  0  0  0  0  0  0  0  0  0
   59.2161   37.0183   36.4888 C   0  0  0  0  0  0  0  0  0  0  0  0
  1  2  1  0
  2  3  1  0
  3  4  2  0
  4  5  1  0
  5  6  2  0
  6  7  1  0
  7  8  1  0
  8  9  1  0
  9 10  2  0
  9 11  1  0
 11 12  1  0
 12 13  1  0
 13 14  1  0
 14 15  1  0
 15 16  1  0
 16 17  1  0
 17 18  1  0
 18 19  2  0
 19 20  1  0
 20 21  2  0
 21 22  1  0
 22 23  2  0
 23 24  1  0
  6 25  1  0
 25 26  2  0
 26  3  1  0
 17 12  1  0
 23 18  1  0
M  END
$$$$
