
     RDKit          3D

 18 19  0  0  0  0  0  0  0  0999 V2000
   -8.8752    1.5586   20.5587 N   0  0  0  0  0  0  0  0  0  0  0  0
   -9.6959    0.5164   19.9525 C   0  0  0  0  0  0  0  0  0  0  0  0
   -9.5932   -0.7751   20.7654 C   0  0  0  0  0  0  0  0  0  0  0  0
  -10.3401   -1.9383   20.1138 C   0  0  0  0  0  0  0  0  0  0  0  0
  -11.8550   -1.8258   20.1855 C   0  0  0  0  0  0  0  0  0  0  0  0
  -12.4237   -0.9166   20.7884 O   0  0  0  0  0  0  0  0  0  0  0  0
  -12.6301   -2.9241   19.4701 C   0  0  0  0  0  0  0  0  0  0  0  0
  -14.1436   -2.7572   19.5883 C   0  0  0  0  0  0  0  0  0  0  0  0
  -14.6721   -1.6167   18.7132 C   0  0  0  0  0  0  0  0  0  0  0  0
  -16.1004   -1.3282   19.0164 C   0  0  0  0  0  0  0  0  0  0  0  0
  -17.1552   -1.8053   18.3894 N   0  0  0  0  0  0  0  0  0  0  0  0
  -18.2410   -1.2594   19.0308 C   0  0  0  0  0  0  0  0  0  0  0  0
  -19.6102   -1.4265   18.7783 C   0  0  0  0  0  0  0  0  0  0  0  0
  -20.5308   -0.7504   19.5895 C   0  0  0  0  0  0  0  0  0  0  0  0
  -20.0966    0.0745   20.6305 C   0  0  0  0  0  0  0  0  0  0  0  0
  -18.7339    0.2536   20.8977 C   0  0  0  0  0  0  0  0  0  0  0  0
  -17.8393   -0.4317   20.0732 C   0  0  0  0  0  0  0  0  0  0  0  0
  -16.4704   -0.4922   20.0425 N   0  0  0  0  0  0  0  0  0  0  0  0
  1  2  1  0
  2  3  1  0
  3  4  1  0
  4  5  1  0
  5  6  2  0
  5  7  1  0
  7  8  1  0
  8  9  1  0
  9 10  1  0
 10 11  2  0
 11 12  1  0
 12 13  2  0
 13 14  1  0
 14 15  2  0
 15 16  1  0
 16 17  2  0
 17 18  1  0
 18 10  1  0
 17 12  1  0
M  END
$$$$
