
     RDKit          3D

 29 32  0  0  0  0  0  0  0  0999 V2000
   33.4005    0.9881  -27.5147 N   0  0  0  0  0  0  0  0  0  0  0  0
   32.0421    1.0852  -27.5333 C   0  0  0  0  0  0  0  0  0  0  0  0
   31.4021    1.2492  -28.5633 O   0  0  0  0  0  0  0  0  0  0  0  0
   31.3615    0.8967  -26.2372 C   0  0  0  0  0  0  0  0  0  0  0  0
   30.7474   -0.3658  -26.1018 C   0  0  0  0  0  0  0  0  0  0  0  0
   30.1001   -0.7066  -24.9229 C   0  0  0  0  0  0  0  0  0  0  0  0
   30.0649    0.2190  -23.8960 C   0  0  0  0  0  0  0  0  0  0  0  0
   29.4369   -0.0910  -22.7540 F   0  0  0  0  0  0  0  0  0  0  0  0
   30.6590    1.4774  -24.0267 C   0  0  0  0  0  0  0  0  0  0  0  0
   31.3303    1.8716  -25.2032 C   0  0  0  0  0  0  0  0  0  0  0  0
   31.9024    3.1620  -25.3293 N   0  0  0  0  0  0  0  0  0  0  0  0
   31.3905    3.9120  -26.5049 C   0  0  0  0  0  0  0  0  0  0  0  0
   31.5889    5.4206  -26.3839 C   0  0  0  0  0  0  0  0  0  0  0  0
   30.9768    5.9822  -25.1056 C   0  0  0  0  0  0  0  0  0  0  0  0
   31.0718    5.0109  -23.9279 C   0  0  0  0  0  0  0  0  0  0  0  0
   32.1699    3.9588  -24.1199 C   0  0  0  0  0  0  0  0  0  0  0  0
   33.4226    4.6466  -24.2208 O   0  0  0  0  0  0  0  0  0  0  0  0
   34.5517    3.7794  -24.1033 C   0  0  0  0  0  0  0  0  0  0  0  0
   35.1562    3.4768  -25.4775 C   0  0  0  0  0  0  0  0  0  0  0  0
   36.3485    2.6394  -25.4064 N   0  0  0  0  0  0  0  0  0  0  0  0
   36.1973    1.3391  -24.9249 C   0  0  0  0  0  0  0  0  0  0  0  0
   35.0339    0.6536  -25.1012 N   0  0  0  0  0  0  0  0  0  0  0  0
   34.9382   -0.6048  -24.6073 C   0  0  0  0  0  0  0  0  0  0  0  0
   35.8670   -1.3149  -23.9377 N   0  0  0  0  0  0  0  0  0  0  0  0
   36.9900   -0.5995  -23.7936 C   0  0  0  0  0  0  0  0  0  0  0  0
   38.1390   -0.9901  -23.1698 N   0  0  0  0  0  0  0  0  0  0  0  0
   39.0219    0.0537  -23.2402 C   0  0  0  0  0  0  0  0  0  0  0  0
   38.5097    1.0897  -23.8715 N   0  0  0  0  0  0  0  0  0  0  0  0
   37.2387    0.6875  -24.2350 C   0  0  0  0  0  0  0  0  0  0  0  0
  1  2  1  0
  2  3  2  0
  2  4  1  0
  4  5  2  0
  5  6  1  0
  6  7  2  0
  7  8  1  0
  7  9  1  0
  9 10  2  0
 10 11  1  0
 11 12  1  0
 12 13  1  0
 13 14  1  0
 14 15  1  0
 15 16  1  0
 16 17  1  0
 17 18  1  0
 18 19  1  0
 19 20  1  0
 20 21  1  0
 21 22  2  0
 22 23  1  0
 23 24  2  0
 24 25  1  0
 25 26  1  0
 26 27  1  0
 27 28  2  0
 28 29  1  0
 10  4  1  0
 16 11  1  0
 29 21  1  0
 29 25  2  0
M  END
$$$$
