
     RDKit          3D

 19 20  0  0  0  0  0  0  0  0999 V2000
    2.3486   -0.6283   19.5893 N   0  0  0  0  0  0  0  0  0  0  0  0
    2.8556   -1.1459   18.3239 C   0  0  0  0  0  0  0  0  0  0  0  0
    2.8856   -0.0670   17.2517 C   0  0  0  0  0  0  0  0  0  0  0  0
    1.4936    0.3134   16.7915 C   0  0  0  0  0  0  0  0  0  0  0  0
    0.7368   -0.5068   16.2678 O   0  0  0  0  0  0  0  0  0  0  0  0
    1.0649    1.7405   16.9813 C   0  0  0  0  0  0  0  0  0  0  0  0
    0.6292    2.0476   18.3870 C   0  0  0  0  0  0  0  0  0  0  0  0
    1.4227    2.5236   19.2020 O   0  0  0  0  0  0  0  0  0  0  0  0
   -0.8010    1.7316   18.7637 C   0  0  0  0  0  0  0  0  0  0  0  0
   -0.8930    0.4258   19.5388 C   0  0  0  0  0  0  0  0  0  0  0  0
   -2.3133    0.0394   19.8035 C   0  0  0  0  0  0  0  0  0  0  0  0
   -3.0600    0.3593   20.9203 C   0  0  0  0  0  0  0  0  0  0  0  0
   -4.3102   -0.1770   20.7686 N   0  0  0  0  0  0  0  0  0  0  0  0
   -4.4020   -0.8421   19.5684 C   0  0  0  0  0  0  0  0  0  0  0  0
   -5.4789   -1.5310   18.9975 C   0  0  0  0  0  0  0  0  0  0  0  0
   -5.2797   -2.1213   17.7459 C   0  0  0  0  0  0  0  0  0  0  0  0
   -4.0525   -2.0253   17.0943 C   0  0  0  0  0  0  0  0  0  0  0  0
   -2.9863   -1.3325   17.6792 C   0  0  0  0  0  0  0  0  0  0  0  0
   -3.1614   -0.7275   18.9410 C   0  0  0  0  0  0  0  0  0  0  0  0
  1  2  1  0
  2  3  1  0
  3  4  1  0
  4  5  2  0
  4  6  1  0
  6  7  1  0
  7  8  2  0
  7  9  1  0
  9 10  1  0
 10 11  1  0
 11 12  2  0
 12 13  1  0
 13 14  1  0
 14 15  2  0
 15 16  1  0
 16 17  2  0
 17 18  1  0
 18 19  2  0
 19 11  1  0
 19 14  1  0
M  END
$$$$
