
     RDKit          3D

 23 25  0  0  0  0  0  0  0  0999 V2000
  -14.9365   17.1183  -16.6183 N   0  0  0  0  0  0  0  0  0  0  0  0
  -14.5132   16.3980  -15.5329 C   0  0  0  0  0  0  0  0  0  0  0  0
  -14.0106   15.2873  -15.6691 O   0  0  0  0  0  0  0  0  0  0  0  0
  -14.7456   16.9801  -14.1752 C   0  0  0  0  0  0  0  0  0  0  0  0
  -14.8597   16.0381  -13.1287 C   0  0  0  0  0  0  0  0  0  0  0  0
  -15.0920   16.4483  -11.8175 C   0  0  0  0  0  0  0  0  0  0  0  0
  -15.2082   17.8032  -11.5480 C   0  0  0  0  0  0  0  0  0  0  0  0
  -15.4201   18.2097  -10.2891 F   0  0  0  0  0  0  0  0  0  0  0  0
  -15.0838   18.7549  -12.5597 C   0  0  0  0  0  0  0  0  0  0  0  0
  -14.8434   18.3695  -13.8964 C   0  0  0  0  0  0  0  0  0  0  0  0
  -14.6733   19.3523  -14.9126 N   0  0  0  0  0  0  0  0  0  0  0  0
  -15.8930   20.2093  -15.0003 C   0  0  0  0  0  0  0  0  0  0  0  0
  -15.7911   21.1976  -16.1491 C   0  0  0  0  0  0  0  0  0  0  0  0
  -16.7600   21.4668  -16.8607 O   0  0  0  0  0  0  0  0  0  0  0  0
  -14.4918   21.9567  -16.2554 C   0  0  0  0  0  0  0  0  0  0  0  0
  -13.3173   21.0004  -16.1072 C   0  0  0  0  0  0  0  0  0  0  0  0
  -13.4059   20.1419  -14.8065 C   0  0  0  0  0  0  0  0  0  0  0  0
  -12.0561   19.5784  -14.6013 N   0  0  0  0  0  0  0  0  0  0  0  0
  -11.6349   18.5606  -15.5706 C   0  0  0  0  0  0  0  0  0  0  0  0
  -10.1285   18.2872  -15.4496 C   0  0  0  0  0  0  0  0  0  0  0  0
   -9.7265   17.9187  -14.0253 C   0  0  0  0  0  0  0  0  0  0  0  0
  -10.2822   18.9318  -13.0276 C   0  0  0  0  0  0  0  0  0  0  0  0
  -11.7854   19.1340  -13.2334 C   0  0  0  0  0  0  0  0  0  0  0  0
  1  2  1  0
  2  3  2  0
  2  4  1  0
  4  5  2  0
  5  6  1  0
  6  7  2  0
  7  8  1  0
  7  9  1  0
  9 10  2  0
 10 11  1  0
 11 12  1  0
 12 13  1  0
 13 14  2  0
 13 15  1  0
 15 16  1  0
 16 17  1  0
 17 18  1  0
 18 19  1  0
 19 20  1  0
 20 21  1  0
 21 22  1  0
 22 23  1  0
 10  4  1  0
 17 11  1  0
 23 18  1  0
M  END
$$$$
