
     RDKit          3D

 26 28  0  0  0  0  0  0  0  0999 V2000
   46.1144  -30.7076    3.1879 C   0  0  0  0  0  0  0  0  0  0  0  0
   46.2018  -31.8913    2.3473 N   0  0  0  0  0  0  0  0  0  0  0  0
   45.4328  -31.7600    1.0949 C   0  0  0  0  0  0  0  0  0  0  0  0
   46.1084  -30.8468    0.0411 C   0  0  0  0  0  0  0  0  0  0  0  0
   45.2741  -30.7523   -1.2624 C   0  0  0  0  0  0  0  0  0  0  0  0
   44.8764  -32.0327   -1.9761 C   0  0  0  0  0  0  0  0  0  0  0  0
   45.8314  -33.0543   -2.1330 C   0  0  0  0  0  0  0  0  0  0  0  0
   45.4892  -34.2295   -2.7791 C   0  0  0  0  0  0  0  0  0  0  0  0
   44.2745  -34.4611   -3.2990 N   0  0  0  0  0  0  0  0  0  0  0  0
   43.3753  -33.4565   -3.1746 C   0  0  0  0  0  0  0  0  0  0  0  0
   43.5918  -32.2182   -2.5408 C   0  0  0  0  0  0  0  0  0  0  0  0
   42.6007  -31.1965   -2.4957 N   0  0  0  0  0  0  0  0  0  0  0  0
   42.6545  -30.3389   -3.6940 C   0  0  0  0  0  0  0  0  0  0  0  0
   43.7033  -29.4026   -3.5250 O   0  0  0  0  0  0  0  0  0  0  0  0
   41.3719  -29.5214   -3.8748 C   0  0  0  0  0  0  0  0  0  0  0  0
   40.1465  -30.4087   -4.0476 C   0  0  0  0  0  0  0  0  0  0  0  0
   40.3547  -31.7632   -3.3788 C   0  0  0  0  0  0  0  0  0  0  0  0
   41.2274  -31.6550   -2.0916 C   0  0  0  0  0  0  0  0  0  0  0  0
   40.5284  -30.8422   -1.0579 N   0  0  0  0  0  0  0  0  0  0  0  0
   41.3574  -30.6447    0.1435 C   0  0  0  0  0  0  0  0  0  0  0  0
   41.5149  -31.8983    1.0087 C   0  0  0  0  0  0  0  0  0  0  0  0
   40.1607  -32.4839    1.3931 C   0  0  0  0  0  0  0  0  0  0  0  0
   39.2619  -32.6435    0.1722 C   0  0  0  0  0  0  0  0  0  0  0  0
   39.2093  -31.3503   -0.6450 C   0  0  0  0  0  0  0  0  0  0  0  0
   47.4592  -31.3032   -0.1595 O   0  0  0  0  0  0  0  0  0  0  0  0
   48.2978  -30.3506   -0.8004 C   0  0  0  0  0  0  0  0  0  0  0  0
  1  2  1  0
  2  3  1  0
  3  4  1  0
  4  5  1  0
  5  6  1  0
  6  7  2  0
  7  8  1  0
  8  9  2  0
  9 10  1  0
 10 11  2  0
 11 12  1  0
 12 13  1  0
 13 14  1  0
 13 15  1  0
 15 16  1  0
 16 17  1  0
 17 18  1  0
 18 19  1  0
 19 20  1  0
 20 21  1  0
 21 22  1  0
 22 23  1  0
 23 24  1  0
  4 25  1  0
 25 26  1  0
 11  6  1  0
 18 12  1  0
 24 19  1  0
M  END
$$$$
