
     RDKit          3D

 26 28  0  0  0  0  0  0  0  0999 V2000
   24.9138  -23.5512  -14.9364 C   0  0  0  0  0  0  0  0  0  0  0  0
   25.4609  -22.5470  -15.8111 N   0  0  0  0  0  0  0  0  0  0  0  0
   26.4315  -21.6745  -15.3741 C   0  0  0  0  0  0  0  0  0  0  0  0
   26.9511  -21.7398  -14.2704 O   0  0  0  0  0  0  0  0  0  0  0  0
   26.8289  -20.6461  -16.4119 C   0  0  0  0  0  0  0  0  0  0  0  0
   26.1296  -19.3193  -16.2252 C   0  0  0  0  0  0  0  0  0  0  0  0
   26.7370  -18.3779  -15.3759 C   0  0  0  0  0  0  0  0  0  0  0  0
   26.1549  -17.1318  -15.1437 C   0  0  0  0  0  0  0  0  0  0  0  0
   24.9541  -16.8049  -15.7606 C   0  0  0  0  0  0  0  0  0  0  0  0
   24.2819  -15.6207  -15.6341 O   0  0  0  0  0  0  0  0  0  0  0  0
   24.8996  -14.6181  -14.8368 C   0  0  0  0  0  0  0  0  0  0  0  0
   24.3349  -17.7416  -16.5938 C   0  0  0  0  0  0  0  0  0  0  0  0
   24.8894  -19.0134  -16.8304 C   0  0  0  0  0  0  0  0  0  0  0  0
   24.2701  -19.9592  -17.6966 N   0  0  0  0  0  0  0  0  0  0  0  0
   24.7543  -19.6944  -19.0790 C   0  0  0  0  0  0  0  0  0  0  0  0
   24.2385  -20.7242  -20.0774 C   0  0  0  0  0  0  0  0  0  0  0  0
   24.7918  -20.8792  -21.1821 O   0  0  0  0  0  0  0  0  0  0  0  0
   22.9112  -21.4060  -19.8005 C   0  0  0  0  0  0  0  0  0  0  0  0
   22.4414  -21.3693  -18.3481 C   0  0  0  0  0  0  0  0  0  0  0  0
   22.7813  -20.0267  -17.6572 C   0  0  0  0  0  0  0  0  0  0  0  0
   22.0363  -19.8559  -16.4092 N   0  0  0  0  0  0  0  0  0  0  0  0
   20.6385  -19.4793  -16.5569 C   0  0  0  0  0  0  0  0  0  0  0  0
   20.1013  -18.9743  -15.2190 C   0  0  0  0  0  0  0  0  0  0  0  0
   20.2717  -19.9905  -14.0895 C   0  0  0  0  0  0  0  0  0  0  0  0
   21.1071  -21.1940  -14.5096 C   0  0  0  0  0  0  0  0  0  0  0  0
   22.3353  -20.7903  -15.3285 C   0  0  0  0  0  0  0  0  0  0  0  0
  1  2  1  0
  2  3  1  0
  3  4  2  0
  3  5  1  0
  5  6  1  0
  6  7  2  0
  7  8  1  0
  8  9  2  0
  9 10  1  0
 10 11  1  0
  9 12  1  0
 12 13  2  0
 13 14  1  0
 14 15  1  0
 15 16  1  0
 16 17  2  0
 16 18  1  0
 18 19  1  0
 19 20  1  0
 20 21  1  0
 21 22  1  0
 22 23  1  0
 23 24  1  0
 24 25  1  0
 25 26  1  0
 13  6  1  0
 20 14  1  0
 26 21  1  0
M  END
$$$$
