
     RDKit          3D

 26 28  0  0  0  0  0  0  0  0999 V2000
   59.6622   20.3765  -36.2469 C   0  0  0  0  0  0  0  0  0  0  0  0
   60.2092   21.3807  -37.1217 N   0  0  0  0  0  0  0  0  0  0  0  0
   61.1798   22.2532  -36.6846 C   0  0  0  0  0  0  0  0  0  0  0  0
   61.6995   22.1879  -35.5809 O   0  0  0  0  0  0  0  0  0  0  0  0
   61.5772   23.2816  -37.7224 C   0  0  0  0  0  0  0  0  0  0  0  0
   60.8780   24.6084  -37.5357 C   0  0  0  0  0  0  0  0  0  0  0  0
   61.4854   25.5498  -36.6864 C   0  0  0  0  0  0  0  0  0  0  0  0
   60.9033   26.7960  -36.4542 C   0  0  0  0  0  0  0  0  0  0  0  0
   59.7025   27.1228  -37.0711 C   0  0  0  0  0  0  0  0  0  0  0  0
   59.0302   28.3070  -36.9447 O   0  0  0  0  0  0  0  0  0  0  0  0
   59.6480   29.3096  -36.1473 C   0  0  0  0  0  0  0  0  0  0  0  0
   59.0833   26.1861  -37.9043 C   0  0  0  0  0  0  0  0  0  0  0  0
   59.6378   24.9144  -38.1409 C   0  0  0  0  0  0  0  0  0  0  0  0
   59.0184   23.9685  -39.0071 N   0  0  0  0  0  0  0  0  0  0  0  0
   59.5027   24.2333  -40.3896 C   0  0  0  0  0  0  0  0  0  0  0  0
   58.9869   23.2035  -41.3879 C   0  0  0  0  0  0  0  0  0  0  0  0
   59.5401   23.0485  -42.4927 O   0  0  0  0  0  0  0  0  0  0  0  0
   57.6595   22.5217  -41.1111 C   0  0  0  0  0  0  0  0  0  0  0  0
   57.1898   22.5584  -39.6586 C   0  0  0  0  0  0  0  0  0  0  0  0
   57.5297   23.9010  -38.9677 C   0  0  0  0  0  0  0  0  0  0  0  0
   56.7846   24.0718  -37.7197 N   0  0  0  0  0  0  0  0  0  0  0  0
   55.3869   24.4484  -37.8674 C   0  0  0  0  0  0  0  0  0  0  0  0
   54.8497   24.9535  -36.5295 C   0  0  0  0  0  0  0  0  0  0  0  0
   55.0201   23.9372  -35.4001 C   0  0  0  0  0  0  0  0  0  0  0  0
   55.8554   22.7337  -35.8201 C   0  0  0  0  0  0  0  0  0  0  0  0
   57.0837   23.1374  -36.6390 C   0  0  0  0  0  0  0  0  0  0  0  0
  1  2  1  0
  2  3  1  0
  3  4  2  0
  3  5  1  0
  5  6  1  0
  6  7  2  0
  7  8  1  0
  8  9  2  0
  9 10  1  0
 10 11  1  0
  9 12  1  0
 12 13  2  0
 13 14  1  0
 14 15  1  0
 15 16  1  0
 16 17  2  0
 16 18  1  0
 18 19  1  0
 19 20  1  0
 20 21  1  0
 21 22  1  0
 22 23  1  0
 23 24  1  0
 24 25  1  0
 25 26  1  0
 13  6  1  0
 20 14  1  0
 26 21  1  0
M  END
$$$$
