
     RDKit          3D

 27 29  0  0  0  0  0  0  0  0999 V2000
    7.2873  -60.5590   -2.9302 N   0  0  0  0  0  0  0  0  0  0  0  0
    6.5886  -61.6812   -3.5438 C   0  0  0  0  0  0  0  0  0  0  0  0
    5.2671  -61.2634   -4.1743 C   0  0  0  0  0  0  0  0  0  0  0  0
    4.3088  -60.5484   -3.2383 C   0  0  0  0  0  0  0  0  0  0  0  0
    3.7097  -59.5365   -3.6208 O   0  0  0  0  0  0  0  0  0  0  0  0
    4.0071  -61.1566   -1.8805 C   0  0  0  0  0  0  0  0  0  0  0  0
    3.1910  -62.4270   -1.9744 C   0  0  0  0  0  0  0  0  0  0  0  0
    3.8050  -63.6423   -1.6364 C   0  0  0  0  0  0  0  0  0  0  0  0
    3.0899  -64.8197   -1.7680 C   0  0  0  0  0  0  0  0  0  0  0  0
    1.8229  -64.8734   -2.2133 N   0  0  0  0  0  0  0  0  0  0  0  0
    1.2297  -63.6938   -2.5084 C   0  0  0  0  0  0  0  0  0  0  0  0
    1.8444  -62.4434   -2.3999 C   0  0  0  0  0  0  0  0  0  0  0  0
    1.1139  -61.1817   -2.8128 C   0  0  0  0  0  0  0  0  0  0  0  0
   -0.4004  -61.2026   -2.6680 C   0  0  0  0  0  0  0  0  0  0  0  0
   -0.9816  -61.7070   -1.7118 O   0  0  0  0  0  0  0  0  0  0  0  0
   -1.0680  -60.5866   -3.7069 N   0  0  0  0  0  0  0  0  0  0  0  0
   -2.5172  -60.4936   -3.7335 C   0  0  0  0  0  0  0  0  0  0  0  0
   -3.1771  -61.8018   -4.1775 C   0  0  0  0  0  0  0  0  0  0  0  0
   -4.6665  -61.6876   -4.2483 C   0  0  0  0  0  0  0  0  0  0  0  0
   -5.4269  -61.5017   -5.3866 C   0  0  0  0  0  0  0  0  0  0  0  0
   -6.7449  -61.4512   -5.0187 N   0  0  0  0  0  0  0  0  0  0  0  0
   -6.8661  -61.5968   -3.6568 C   0  0  0  0  0  0  0  0  0  0  0  0
   -8.0087  -61.6060   -2.8476 C   0  0  0  0  0  0  0  0  0  0  0  0
   -7.8267  -61.7778   -1.4722 C   0  0  0  0  0  0  0  0  0  0  0  0
   -6.5529  -61.9344   -0.9309 C   0  0  0  0  0  0  0  0  0  0  0  0
   -5.4214  -61.9235   -1.7546 C   0  0  0  0  0  0  0  0  0  0  0  0
   -5.5777  -61.7508   -3.1453 C   0  0  0  0  0  0  0  0  0  0  0  0
  1  2  1  0
  2  3  1  0
  3  4  1  0
  4  5  2  0
  4  6  1  0
  6  7  1  0
  7  8  2  0
  8  9  1  0
  9 10  2  0
 10 11  1  0
 11 12  2  0
 12 13  1  0
 13 14  1  0
 14 15  2  0
 14 16  1  0
 16 17  1  0
 17 18  1  0
 18 19  1  0
 19 20  2  0
 20 21  1  0
 21 22  1  0
 22 23  2  0
 23 24  1  0
 24 25  2  0
 25 26  1  0
 26 27  2  0
 12  7  1  0
 27 19  1  0
 27 22  1  0
M  END
$$$$
