
     RDKit          3D

 16 17  0  0  0  0  0  0  0  0999 V2000
   29.3464    0.9600    0.5562 N   0  0  0  0  0  0  0  0  0  0  0  0
   28.4422    0.8280    1.6985 C   0  0  0  0  0  0  0  0  0  0  0  0
   27.0294    0.5096    1.2255 C   0  0  0  0  0  0  0  0  0  0  0  0
   26.0675    0.3553    2.3897 C   0  0  0  0  0  0  0  0  0  0  0  0
   26.3932    0.6160    3.5472 O   0  0  0  0  0  0  0  0  0  0  0  0
   24.6714   -0.1142    2.0279 C   0  0  0  0  0  0  0  0  0  0  0  0
   23.7780   -0.2600    3.2558 C   0  0  0  0  0  0  0  0  0  0  0  0
   22.4032   -0.7232    2.8896 C   0  0  0  0  0  0  0  0  0  0  0  0
   21.9541   -2.0295    2.8851 C   0  0  0  0  0  0  0  0  0  0  0  0
   20.6444   -2.0332    2.4878 N   0  0  0  0  0  0  0  0  0  0  0  0
   20.2227   -0.7511    2.2248 C   0  0  0  0  0  0  0  0  0  0  0  0
   18.9760   -0.2823    1.7931 C   0  0  0  0  0  0  0  0  0  0  0  0
   18.8301    1.0957    1.6095 C   0  0  0  0  0  0  0  0  0  0  0  0
   19.8893    1.9673    1.8497 C   0  0  0  0  0  0  0  0  0  0  0  0
   21.1291    1.4812    2.2809 C   0  0  0  0  0  0  0  0  0  0  0  0
   21.3038    0.0950    2.4726 C   0  0  0  0  0  0  0  0  0  0  0  0
  1  2  1  0
  2  3  1  0
  3  4  1  0
  4  5  2  0
  4  6  1  0
  6  7  1  0
  7  8  1  0
  8  9  2  0
  9 10  1  0
 10 11  1  0
 11 12  2  0
 12 13  1  0
 13 14  2  0
 14 15  1  0
 15 16  2  0
 16  8  1  0
 16 11  1  0
M  END
$$$$
