
     RDKit          3D

 19 20  0  0  0  0  0  0  0  0999 V2000
    2.6062   -2.1438   -5.6639 N   0  0  0  0  0  0  0  0  0  0  0  0
    1.9669   -0.8290   -5.6756 C   0  0  0  0  0  0  0  0  0  0  0  0
    1.3169   -0.4820   -4.3434 C   0  0  0  0  0  0  0  0  0  0  0  0
   -0.0123   -1.1833   -4.1506 C   0  0  0  0  0  0  0  0  0  0  0  0
   -0.1702   -2.0003   -3.2401 O   0  0  0  0  0  0  0  0  0  0  0  0
   -1.1256   -0.8541   -5.1308 C   0  0  0  0  0  0  0  0  0  0  0  0
   -2.5030   -1.0486   -4.5114 C   0  0  0  0  0  0  0  0  0  0  0  0
   -2.7727   -0.0522   -3.3975 C   0  0  0  0  0  0  0  0  0  0  0  0
   -2.0392    0.9210   -3.2094 O   0  0  0  0  0  0  0  0  0  0  0  0
   -4.0066   -0.2970   -2.5491 C   0  0  0  0  0  0  0  0  0  0  0  0
   -5.2569   -0.0134   -3.3107 C   0  0  0  0  0  0  0  0  0  0  0  0
   -5.7964    1.2337   -3.5523 C   0  0  0  0  0  0  0  0  0  0  0  0
   -6.9360    1.0745   -4.2918 N   0  0  0  0  0  0  0  0  0  0  0  0
   -7.1495   -0.2540   -4.5551 C   0  0  0  0  0  0  0  0  0  0  0  0
   -8.1747   -0.8726   -5.2803 C   0  0  0  0  0  0  0  0  0  0  0  0
   -8.1402   -2.2682   -5.3952 C   0  0  0  0  0  0  0  0  0  0  0  0
   -7.1202   -3.0085   -4.8063 C   0  0  0  0  0  0  0  0  0  0  0  0
   -6.1055   -2.3739   -4.0793 C   0  0  0  0  0  0  0  0  0  0  0  0
   -6.1159   -0.9665   -3.9490 C   0  0  0  0  0  0  0  0  0  0  0  0
  1  2  1  0
  2  3  1  0
  3  4  1  0
  4  5  2  0
  4  6  1  0
  6  7  1  0
  7  8  1  0
  8  9  2  0
  8 10  1  0
 10 11  1  0
 11 12  2  0
 12 13  1  0
 13 14  1  0
 14 15  2  0
 15 16  1  0
 16 17  2  0
 17 18  1  0
 18 19  2  0
 19 11  1  0
 19 14  1  0
M  END
$$$$
