
     RDKit          3D

 16 17  0  0  0  0  0  0  0  0999 V2000
  -20.2367   -2.4277   18.1660 N   0  0  0  0  0  0  0  0  0  0  0  0
  -19.6751   -3.5185   18.9512 C   0  0  0  0  0  0  0  0  0  0  0  0
  -20.7715   -4.2061   19.7616 C   0  0  0  0  0  0  0  0  0  0  0  0
  -20.1889   -5.2882   20.6617 C   0  0  0  0  0  0  0  0  0  0  0  0
  -21.2565   -6.1768   21.2699 C   0  0  0  0  0  0  0  0  0  0  0  0
  -21.3052   -7.3764   20.9828 O   0  0  0  0  0  0  0  0  0  0  0  0
  -22.2322   -5.5525   22.2506 C   0  0  0  0  0  0  0  0  0  0  0  0
  -23.5380   -5.2091   21.6126 C   0  0  0  0  0  0  0  0  0  0  0  0
  -24.4048   -6.0950   21.0006 C   0  0  0  0  0  0  0  0  0  0  0  0
  -25.4897   -5.3986   20.5459 N   0  0  0  0  0  0  0  0  0  0  0  0
  -25.3622   -4.0659   20.8572 C   0  0  0  0  0  0  0  0  0  0  0  0
  -26.2245   -2.9945   20.5944 C   0  0  0  0  0  0  0  0  0  0  0  0
  -25.8366   -1.7266   21.0352 C   0  0  0  0  0  0  0  0  0  0  0  0
  -24.6349   -1.5410   21.7129 C   0  0  0  0  0  0  0  0  0  0  0  0
  -23.7852   -2.6239   21.9685 C   0  0  0  0  0  0  0  0  0  0  0  0
  -24.1497   -3.9150   21.5319 C   0  0  0  0  0  0  0  0  0  0  0  0
  1  2  1  0
  2  3  1  0
  3  4  1  0
  4  5  1  0
  5  6  2  0
  5  7  1  0
  7  8  1  0
  8  9  2  0
  9 10  1  0
 10 11  1  0
 11 12  2  0
 12 13  1  0
 13 14  2  0
 14 15  1  0
 15 16  2  0
 16  8  1  0
 16 11  1  0
M  END
$$$$
