
     RDKit          3D

 28 31  0  0  0  0  0  0  0  0999 V2000
    2.1527    3.6585   13.7076 C   0  0  0  0  0  0  0  0  0  0  0  0
    1.5758    2.3997   13.3837 O   0  0  0  0  0  0  0  0  0  0  0  0
    1.4162    1.5097   14.4108 C   0  0  0  0  0  0  0  0  0  0  0  0
    1.7713    1.7219   15.7400 C   0  0  0  0  0  0  0  0  0  0  0  0
    1.5515    0.7210   16.6892 C   0  0  0  0  0  0  0  0  0  0  0  0
    1.0060   -0.5108   16.3149 C   0  0  0  0  0  0  0  0  0  0  0  0
    0.7398   -1.4784   17.3095 N   0  0  0  0  0  0  0  0  0  0  0  0
    0.5671   -0.7151   14.9841 C   0  0  0  0  0  0  0  0  0  0  0  0
   -0.0897   -1.9070   14.6322 N   0  0  0  0  0  0  0  0  0  0  0  0
    0.2633   -2.4938   13.3279 C   0  0  0  0  0  0  0  0  0  0  0  0
    0.0092   -3.9956   13.3735 C   0  0  0  0  0  0  0  0  0  0  0  0
    0.5615   -4.7818   12.6031 O   0  0  0  0  0  0  0  0  0  0  0  0
   -0.9791   -4.4736   14.4140 C   0  0  0  0  0  0  0  0  0  0  0  0
   -2.0585   -3.4116   14.5650 C   0  0  0  0  0  0  0  0  0  0  0  0
   -1.4962   -2.0676   15.0970 C   0  0  0  0  0  0  0  0  0  0  0  0
   -2.4365   -0.9244   14.6574 C   0  0  0  0  0  0  0  0  0  0  0  0
   -2.5613    0.1864   15.7066 C   0  0  0  0  0  0  0  0  0  0  0  0
   -3.5087    1.2073   15.2810 N   0  0  0  0  0  0  0  0  0  0  0  0
   -4.8675    0.9083   15.3156 C   0  0  0  0  0  0  0  0  0  0  0  0
   -5.3607   -0.0273   16.1724 N   0  0  0  0  0  0  0  0  0  0  0  0
   -6.6909   -0.2662   16.1833 C   0  0  0  0  0  0  0  0  0  0  0  0
   -7.6508    0.2987   15.4234 N   0  0  0  0  0  0  0  0  0  0  0  0
   -7.1156    1.2019   14.5910 C   0  0  0  0  0  0  0  0  0  0  0  0
   -7.7773    1.9684   13.6768 N   0  0  0  0  0  0  0  0  0  0  0  0
   -6.8480    2.7425   13.0363 C   0  0  0  0  0  0  0  0  0  0  0  0
   -5.6300    2.5203   13.4841 N   0  0  0  0  0  0  0  0  0  0  0  0
   -5.7850    1.5611   14.4685 C   0  0  0  0  0  0  0  0  0  0  0  0
    0.8182    0.2986   14.0443 C   0  0  0  0  0  0  0  0  0  0  0  0
  1  2  1  0
  2  3  1  0
  3  4  2  0
  4  5  1  0
  5  6  2  0
  6  7  1  0
  6  8  1  0
  8  9  1  0
  9 10  1  0
 10 11  1  0
 11 12  2  0
 11 13  1  0
 13 14  1  0
 14 15  1  0
 15 16  1  0
 16 17  1  0
 17 18  1  0
 18 19  1  0
 19 20  2  0
 20 21  1  0
 21 22  2  0
 22 23  1  0
 23 24  1  0
 24 25  1  0
 25 26  2  0
 26 27  1  0
  8 28  2  0
 28  3  1  0
 15  9  1  0
 27 19  1  0
 27 23  2  0
M  END
$$$$
