
     RDKit          3D

 26 28  0  0  0  0  0  0  0  0999 V2000
    9.1245   32.8275  -21.1040 C   0  0  0  0  0  0  0  0  0  0  0  0
    8.6512   31.9999  -22.1832 N   0  0  0  0  0  0  0  0  0  0  0  0
    8.5432   30.6284  -22.0344 C   0  0  0  0  0  0  0  0  0  0  0  0
    8.7338   30.0642  -20.9609 O   0  0  0  0  0  0  0  0  0  0  0  0
    8.1269   29.9145  -23.3089 C   0  0  0  0  0  0  0  0  0  0  0  0
    8.6681   28.5083  -23.4471 C   0  0  0  0  0  0  0  0  0  0  0  0
    7.9259   27.4654  -22.8563 C   0  0  0  0  0  0  0  0  0  0  0  0
    8.2847   26.1284  -23.0297 C   0  0  0  0  0  0  0  0  0  0  0  0
    9.3876   25.8101  -23.8094 C   0  0  0  0  0  0  0  0  0  0  0  0
    9.8451   24.5499  -24.0838 O   0  0  0  0  0  0  0  0  0  0  0  0
    9.1441   23.4696  -23.4808 C   0  0  0  0  0  0  0  0  0  0  0  0
   10.1350   26.8438  -24.3832 C   0  0  0  0  0  0  0  0  0  0  0  0
    9.8267   28.2049  -24.1893 C   0  0  0  0  0  0  0  0  0  0  0  0
   10.6514   29.1749  -24.7458 N   0  0  0  0  0  0  0  0  0  0  0  0
   10.7293   29.2790  -26.1914 C   0  0  0  0  0  0  0  0  0  0  0  0
    9.5495   29.9211  -26.6619 O   0  0  0  0  0  0  0  0  0  0  0  0
   11.9405   30.0981  -26.6399 C   0  0  0  0  0  0  0  0  0  0  0  0
   11.9971   31.4733  -25.9665 C   0  0  0  0  0  0  0  0  0  0  0  0
   11.3651   31.4646  -24.5708 C   0  0  0  0  0  0  0  0  0  0  0  0
   11.4642   30.0654  -23.8995 C   0  0  0  0  0  0  0  0  0  0  0  0
   12.8966   29.7713  -23.6196 N   0  0  0  0  0  0  0  0  0  0  0  0
   13.1114   28.3825  -23.2169 C   0  0  0  0  0  0  0  0  0  0  0  0
   14.6089   28.0533  -23.1362 C   0  0  0  0  0  0  0  0  0  0  0  0
   15.4506   29.1743  -22.5321 C   0  0  0  0  0  0  0  0  0  0  0  0
   14.5781   30.1359  -21.7470 C   0  0  0  0  0  0  0  0  0  0  0  0
   13.4623   30.7114  -22.6287 C   0  0  0  0  0  0  0  0  0  0  0  0
  1  2  1  0
  2  3  1  0
  3  4  2  0
  3  5  1  0
  5  6  1  0
  6  7  2  0
  7  8  1  0
  8  9  2  0
  9 10  1  0
 10 11  1  0
  9 12  1  0
 12 13  2  0
 13 14  1  0
 14 15  1  0
 15 16  1  0
 15 17  1  0
 17 18  1  0
 18 19  1  0
 19 20  1  0
 20 21  1  0
 21 22  1  0
 22 23  1  0
 23 24  1  0
 24 25  1  0
 25 26  1  0
 13  6  1  0
 20 14  1  0
 26 21  1  0
M  END
$$$$
