
     RDKit          3D

 19 20  0  0  0  0  0  0  0  0999 V2000
  -21.9373    9.5674   24.8599 N   0  0  0  0  0  0  0  0  0  0  0  0
  -22.5766   10.8822   24.8483 C   0  0  0  0  0  0  0  0  0  0  0  0
  -23.2266   11.2292   26.1804 C   0  0  0  0  0  0  0  0  0  0  0  0
  -24.5558   10.5279   26.3732 C   0  0  0  0  0  0  0  0  0  0  0  0
  -24.7137    9.7110   27.2837 O   0  0  0  0  0  0  0  0  0  0  0  0
  -25.6691   10.8571   25.3930 C   0  0  0  0  0  0  0  0  0  0  0  0
  -27.0465   10.6626   26.0124 C   0  0  0  0  0  0  0  0  0  0  0  0
  -27.3162   11.6590   27.1264 C   0  0  0  0  0  0  0  0  0  0  0  0
  -26.5827   12.6323   27.3144 O   0  0  0  0  0  0  0  0  0  0  0  0
  -28.5501   11.4142   27.9748 C   0  0  0  0  0  0  0  0  0  0  0  0
  -29.8004   11.6978   27.2131 C   0  0  0  0  0  0  0  0  0  0  0  0
  -30.3399   12.9450   26.9715 C   0  0  0  0  0  0  0  0  0  0  0  0
  -31.4795   12.7857   26.2320 N   0  0  0  0  0  0  0  0  0  0  0  0
  -31.6930   11.4573   25.9687 C   0  0  0  0  0  0  0  0  0  0  0  0
  -32.7183   10.8387   25.2436 C   0  0  0  0  0  0  0  0  0  0  0  0
  -32.6837    9.4431   25.1286 C   0  0  0  0  0  0  0  0  0  0  0  0
  -31.6637    8.7027   25.7175 C   0  0  0  0  0  0  0  0  0  0  0  0
  -30.6490    9.3373   26.4445 C   0  0  0  0  0  0  0  0  0  0  0  0
  -30.6594   10.7447   26.5748 C   0  0  0  0  0  0  0  0  0  0  0  0
  1  2  1  0
  2  3  1  0
  3  4  1  0
  4  5  2  0
  4  6  1  0
  6  7  1  0
  7  8  1  0
  8  9  2  0
  8 10  1  0
 10 11  1  0
 11 12  2  0
 12 13  1  0
 13 14  1  0
 14 15  2  0
 15 16  1  0
 16 17  2  0
 17 18  1  0
 18 19  2  0
 19 11  1  0
 19 14  1  0
M  END
$$$$
