
     RDKit          3D

 19 20  0  0  0  0  0  0  0  0999 V2000
   35.2439   11.3751  -18.7867 N   0  0  0  0  0  0  0  0  0  0  0  0
   34.6046   12.6900  -18.7983 C   0  0  0  0  0  0  0  0  0  0  0  0
   33.9546   13.0370  -17.4662 C   0  0  0  0  0  0  0  0  0  0  0  0
   32.6254   12.3356  -17.2734 C   0  0  0  0  0  0  0  0  0  0  0  0
   32.4675   11.5187  -16.3629 O   0  0  0  0  0  0  0  0  0  0  0  0
   31.5122   12.6648  -18.2536 C   0  0  0  0  0  0  0  0  0  0  0  0
   30.1347   12.4703  -17.6342 C   0  0  0  0  0  0  0  0  0  0  0  0
   29.8650   13.4667  -16.5202 C   0  0  0  0  0  0  0  0  0  0  0  0
   30.5985   14.4400  -16.3322 O   0  0  0  0  0  0  0  0  0  0  0  0
   28.6311   13.2219  -15.6718 C   0  0  0  0  0  0  0  0  0  0  0  0
   27.3808   13.5055  -16.4335 C   0  0  0  0  0  0  0  0  0  0  0  0
   26.8413   14.7527  -16.6751 C   0  0  0  0  0  0  0  0  0  0  0  0
   25.7017   14.5934  -17.4146 N   0  0  0  0  0  0  0  0  0  0  0  0
   25.4882   13.2650  -17.6779 C   0  0  0  0  0  0  0  0  0  0  0  0
   24.4630   12.6464  -18.4030 C   0  0  0  0  0  0  0  0  0  0  0  0
   24.4975   11.2508  -18.5180 C   0  0  0  0  0  0  0  0  0  0  0  0
   25.5176   10.5104  -17.9291 C   0  0  0  0  0  0  0  0  0  0  0  0
   26.5322   11.1450  -17.2021 C   0  0  0  0  0  0  0  0  0  0  0  0
   26.5218   12.5524  -17.0718 C   0  0  0  0  0  0  0  0  0  0  0  0
  1  2  1  0
  2  3  1  0
  3  4  1  0
  4  5  2  0
  4  6  1  0
  6  7  1  0
  7  8  1  0
  8  9  2  0
  8 10  1  0
 10 11  1  0
 11 12  2  0
 12 13  1  0
 13 14  1  0
 14 15  2  0
 15 16  1  0
 16 17  2  0
 17 18  1  0
 18 19  2  0
 19 11  1  0
 19 14  1  0
M  END
$$$$
