
     RDKit          3D

 30 33  0  0  0  0  0  0  0  0999 V2000
  -28.2135    5.7305   16.3616 N   0  0  0  0  0  0  0  0  0  0  0  0
  -26.6543    5.4413   15.8152 S   0  0  0  0  0  0  0  0  0  0  0  0
  -25.7550    5.6982   16.9129 O   0  0  0  0  0  0  0  0  0  0  0  0
  -26.7107    4.1351   15.1945 O   0  0  0  0  0  0  0  0  0  0  0  0
  -26.4584    6.6656   14.5480 C   0  0  0  0  0  0  0  0  0  0  0  0
  -26.6563    6.2064   13.2320 C   0  0  0  0  0  0  0  0  0  0  0  0
  -26.5199    7.0919   12.1828 C   0  0  0  0  0  0  0  0  0  0  0  0
  -26.2064    8.3843   12.3527 N   0  0  0  0  0  0  0  0  0  0  0  0
  -26.0187    8.7957   13.6300 C   0  0  0  0  0  0  0  0  0  0  0  0
  -26.1072    8.0028   14.7865 C   0  0  0  0  0  0  0  0  0  0  0  0
  -25.8799    8.6378   16.0062 N   0  0  0  0  0  0  0  0  0  0  0  0
  -27.0567    8.8797   16.8529 C   0  0  0  0  0  0  0  0  0  0  0  0
  -26.9532    8.1283   18.1667 C   0  0  0  0  0  0  0  0  0  0  0  0
  -27.9029    7.4848   18.6225 O   0  0  0  0  0  0  0  0  0  0  0  0
  -25.6372    8.2166   18.9002 C   0  0  0  0  0  0  0  0  0  0  0  0
  -24.6041    9.0011   18.0983 C   0  0  0  0  0  0  0  0  0  0  0  0
  -24.5328    8.5444   16.6258 C   0  0  0  0  0  0  0  0  0  0  0  0
  -23.5266    9.4058   15.8250 C   0  0  0  0  0  0  0  0  0  0  0  0
  -22.0879    9.2917   16.3423 C   0  0  0  0  0  0  0  0  0  0  0  0
  -21.0951   10.0035   15.5325 N   0  0  0  0  0  0  0  0  0  0  0  0
  -20.9167    9.5000   14.1672 C   0  0  0  0  0  0  0  0  0  0  0  0
  -20.5248    8.0580   14.1472 C   0  0  0  0  0  0  0  0  0  0  0  0
  -21.3015    7.0054   13.6947 C   0  0  0  0  0  0  0  0  0  0  0  0
  -20.5844    5.8482   13.8330 N   0  0  0  0  0  0  0  0  0  0  0  0
  -19.3431    6.1163   14.3592 C   0  0  0  0  0  0  0  0  0  0  0  0
  -18.2855    5.2503   14.6636 C   0  0  0  0  0  0  0  0  0  0  0  0
  -17.1235    5.8106   15.2024 C   0  0  0  0  0  0  0  0  0  0  0  0
  -17.0265    7.1814   15.4288 C   0  0  0  0  0  0  0  0  0  0  0  0
  -18.0936    8.0320   15.1183 C   0  0  0  0  0  0  0  0  0  0  0  0
  -19.2762    7.4939   14.5699 C   0  0  0  0  0  0  0  0  0  0  0  0
  1  2  1  0
  2  3  2  0
  2  4  2  0
  2  5  1  0
  5  6  2  0
  6  7  1  0
  7  8  2  0
  8  9  1  0
  9 10  2  0
 10 11  1  0
 11 12  1  0
 12 13  1  0
 13 14  2  0
 13 15  1  0
 15 16  1  0
 16 17  1  0
 17 18  1  0
 18 19  1  0
 19 20  1  0
 20 21  1  0
 21 22  1  0
 22 23  2  0
 23 24  1  0
 24 25  1  0
 25 26  2  0
 26 27  1  0
 27 28  2  0
 28 29  1  0
 29 30  2  0
 10  5  1  0
 17 11  1  0
 30 22  1  0
 30 25  1  0
M  END
$$$$
