
     RDKit          3D

 28 31  0  0  0  0  0  0  0  0999 V2000
    8.3468  -43.9459   42.7760 N   0  0  0  0  0  0  0  0  0  0  0  0
    7.8349  -42.3649   42.4299 S   0  0  0  0  0  0  0  0  0  0  0  0
    9.0478  -41.5798   42.5590 O   0  0  0  0  0  0  0  0  0  0  0  0
    6.6682  -42.1595   43.2639 O   0  0  0  0  0  0  0  0  0  0  0  0
    7.2849  -42.4708   40.7436 C   0  0  0  0  0  0  0  0  0  0  0  0
    6.5989  -43.6440   40.3746 C   0  0  0  0  0  0  0  0  0  0  0  0
    6.1979  -43.7870   39.0585 C   0  0  0  0  0  0  0  0  0  0  0  0
    6.4172  -42.8522   38.1119 N   0  0  0  0  0  0  0  0  0  0  0  0
    7.0626  -41.7229   38.5080 C   0  0  0  0  0  0  0  0  0  0  0  0
    7.5378  -41.4554   39.8029 C   0  0  0  0  0  0  0  0  0  0  0  0
    8.1863  -40.2586   40.1132 N   0  0  0  0  0  0  0  0  0  0  0  0
    7.3431  -39.2553   40.7847 C   0  0  0  0  0  0  0  0  0  0  0  0
    8.1787  -38.0371   41.1634 C   0  0  0  0  0  0  0  0  0  0  0  0
    8.7786  -37.3677   39.9265 C   0  0  0  0  0  0  0  0  0  0  0  0
    8.9698  -38.3431   38.7620 C   0  0  0  0  0  0  0  0  0  0  0  0
    9.2554  -39.7752   39.2268 C   0  0  0  0  0  0  0  0  0  0  0  0
   10.4890  -39.7796   39.9437 O   0  0  0  0  0  0  0  0  0  0  0  0
   11.0737  -41.0713   39.9488 C   0  0  0  0  0  0  0  0  0  0  0  0
   12.1273  -41.0896   40.9492 N   0  0  0  0  0  0  0  0  0  0  0  0
   12.8175  -42.2417   41.1028 C   0  0  0  0  0  0  0  0  0  0  0  0
   12.9437  -42.9647   42.1897 N   0  0  0  0  0  0  0  0  0  0  0  0
   13.7426  -44.0269   41.8345 C   0  0  0  0  0  0  0  0  0  0  0  0
   14.1821  -45.1189   42.6006 C   0  0  0  0  0  0  0  0  0  0  0  0
   15.0073  -46.0785   41.9932 C   0  0  0  0  0  0  0  0  0  0  0  0
   15.3840  -45.9544   40.6540 C   0  0  0  0  0  0  0  0  0  0  0  0
   14.9495  -44.8727   39.8714 C   0  0  0  0  0  0  0  0  0  0  0  0
   14.1315  -43.9327   40.5028 C   0  0  0  0  0  0  0  0  0  0  0  0
   13.5490  -42.7675   40.0693 N   0  0  0  0  0  0  0  0  0  0  0  0
  1  2  1  0
  2  3  2  0
  2  4  2  0
  2  5  1  0
  5  6  2  0
  6  7  1  0
  7  8  2  0
  8  9  1  0
  9 10  2  0
 10 11  1  0
 11 12  1  0
 12 13  1  0
 13 14  1  0
 14 15  1  0
 15 16  1  0
 16 17  1  0
 17 18  1  0
 18 19  1  0
 19 20  1  0
 20 21  2  0
 21 22  1  0
 22 23  2  0
 23 24  1  0
 24 25  2  0
 25 26  1  0
 26 27  2  0
 27 28  1  0
 10  5  1  0
 16 11  1  0
 28 20  1  0
 27 22  1  0
M  END
$$$$
