
     RDKit          3D

 19 20  0  0  0  0  0  0  0  0999 V2000
    6.7644   12.3584  -24.9498 N   0  0  0  0  0  0  0  0  0  0  0  0
    7.2715   11.8407  -26.2153 C   0  0  0  0  0  0  0  0  0  0  0  0
    7.3015   12.9197  -27.2875 C   0  0  0  0  0  0  0  0  0  0  0  0
    5.9094   13.3001  -27.7477 C   0  0  0  0  0  0  0  0  0  0  0  0
    5.1527   12.4799  -28.2714 O   0  0  0  0  0  0  0  0  0  0  0  0
    5.4808   14.7271  -27.5578 C   0  0  0  0  0  0  0  0  0  0  0  0
    5.0451   15.0342  -26.1521 C   0  0  0  0  0  0  0  0  0  0  0  0
    5.8385   15.5103  -25.3371 O   0  0  0  0  0  0  0  0  0  0  0  0
    3.6148   14.7183  -25.7754 C   0  0  0  0  0  0  0  0  0  0  0  0
    3.5228   13.4125  -25.0003 C   0  0  0  0  0  0  0  0  0  0  0  0
    2.1025   13.0260  -24.7356 C   0  0  0  0  0  0  0  0  0  0  0  0
    1.3559   13.3459  -23.6189 C   0  0  0  0  0  0  0  0  0  0  0  0
    0.1056   12.8097  -23.7705 N   0  0  0  0  0  0  0  0  0  0  0  0
    0.0139   12.1446  -24.9707 C   0  0  0  0  0  0  0  0  0  0  0  0
   -1.0630   11.4556  -25.5416 C   0  0  0  0  0  0  0  0  0  0  0  0
   -0.8639   10.8653  -26.7933 C   0  0  0  0  0  0  0  0  0  0  0  0
    0.3633   10.9614  -27.4449 C   0  0  0  0  0  0  0  0  0  0  0  0
    1.4295   11.6542  -26.8599 C   0  0  0  0  0  0  0  0  0  0  0  0
    1.2544   12.2592  -25.5981 C   0  0  0  0  0  0  0  0  0  0  0  0
  1  2  1  0
  2  3  1  0
  3  4  1  0
  4  5  2  0
  4  6  1  0
  6  7  1  0
  7  8  2  0
  7  9  1  0
  9 10  1  0
 10 11  1  0
 11 12  2  0
 12 13  1  0
 13 14  1  0
 14 15  2  0
 15 16  1  0
 16 17  2  0
 17 18  1  0
 18 19  2  0
 19 11  1  0
 19 14  1  0
M  END
$$$$
