
     RDKit          3D

 24 26  0  0  0  0  0  0  0  0999 V2000
    9.5573  -16.2572  -33.4264 N   0  0  0  0  0  0  0  0  0  0  0  0
    9.6280  -15.6701  -34.7692 C   0  0  0  0  0  0  0  0  0  0  0  0
   10.0689  -16.6690  -35.8568 C   0  0  0  0  0  0  0  0  0  0  0  0
   10.4832  -15.9177  -36.9938 O   0  0  0  0  0  0  0  0  0  0  0  0
    8.9421  -17.6650  -36.1670 C   0  0  0  0  0  0  0  0  0  0  0  0
    8.1212  -18.0245  -35.3184 O   0  0  0  0  0  0  0  0  0  0  0  0
    8.8079  -18.2290  -37.5429 C   0  0  0  0  0  0  0  0  0  0  0  0
    7.4825  -18.2593  -38.0247 C   0  0  0  0  0  0  0  0  0  0  0  0
    7.2013  -18.7231  -39.3019 C   0  0  0  0  0  0  0  0  0  0  0  0
    8.2411  -19.1706  -40.1014 C   0  0  0  0  0  0  0  0  0  0  0  0
    9.5574  -19.1616  -39.6220 C   0  0  0  0  0  0  0  0  0  0  0  0
    9.8935  -18.6942  -38.3344 C   0  0  0  0  0  0  0  0  0  0  0  0
   11.2273  -18.7202  -37.8512 N   0  0  0  0  0  0  0  0  0  0  0  0
   11.3977  -19.6710  -36.7220 C   0  0  0  0  0  0  0  0  0  0  0  0
   11.8735  -21.0360  -37.2030 C   0  0  0  0  0  0  0  0  0  0  0  0
   13.1495  -20.9494  -38.0369 C   0  0  0  0  0  0  0  0  0  0  0  0
   13.5739  -19.5059  -38.2923 C   0  0  0  0  0  0  0  0  0  0  0  0
   12.3779  -18.6606  -38.8120 C   0  0  0  0  0  0  0  0  0  0  0  0
   12.9054  -17.3669  -39.2707 N   0  0  0  0  0  0  0  0  0  0  0  0
   13.5217  -16.5355  -38.2335 C   0  0  0  0  0  0  0  0  0  0  0  0
   13.4982  -15.0328  -38.5396 C   0  0  0  0  0  0  0  0  0  0  0  0
   13.7644  -14.7671  -40.0140 C   0  0  0  0  0  0  0  0  0  0  0  0
   12.8003  -15.5460  -40.9108 C   0  0  0  0  0  0  0  0  0  0  0  0
   12.0239  -16.6410  -40.1727 C   0  0  0  0  0  0  0  0  0  0  0  0
  1  2  1  0
  2  3  1  0
  3  4  1  0
  3  5  1  0
  5  6  2  0
  5  7  1  0
  7  8  2  0
  8  9  1  0
  9 10  2  0
 10 11  1  0
 11 12  2  0
 12 13  1  0
 13 14  1  0
 14 15  1  0
 15 16  1  0
 16 17  1  0
 17 18  1  0
 18 19  1  0
 19 20  1  0
 20 21  1  0
 21 22  1  0
 22 23  1  0
 23 24  1  0
 12  7  1  0
 18 13  1  0
 24 19  1  0
M  END
$$$$
