
     RDKit          3D

 16 17  0  0  0  0  0  0  0  0999 V2000
    8.0368   12.8547   -3.7957 N   0  0  0  0  0  0  0  0  0  0  0  0
    7.1325   12.7228   -2.6535 C   0  0  0  0  0  0  0  0  0  0  0  0
    5.7198   12.4043   -3.1264 C   0  0  0  0  0  0  0  0  0  0  0  0
    4.7579   12.2500   -1.9623 C   0  0  0  0  0  0  0  0  0  0  0  0
    5.0835   12.5107   -0.8047 O   0  0  0  0  0  0  0  0  0  0  0  0
    3.3618   11.7805   -2.3241 C   0  0  0  0  0  0  0  0  0  0  0  0
    2.4683   11.6348   -1.0961 C   0  0  0  0  0  0  0  0  0  0  0  0
    1.0935   11.1715   -1.4624 C   0  0  0  0  0  0  0  0  0  0  0  0
    0.6444    9.8652   -1.4669 C   0  0  0  0  0  0  0  0  0  0  0  0
   -0.6653    9.8616   -1.8642 N   0  0  0  0  0  0  0  0  0  0  0  0
   -1.0869   11.1436   -2.1272 C   0  0  0  0  0  0  0  0  0  0  0  0
   -2.3336   11.6124   -2.5588 C   0  0  0  0  0  0  0  0  0  0  0  0
   -2.4796   12.9904   -2.7425 C   0  0  0  0  0  0  0  0  0  0  0  0
   -1.4204   13.8620   -2.5023 C   0  0  0  0  0  0  0  0  0  0  0  0
   -0.1805   13.3760   -2.0711 C   0  0  0  0  0  0  0  0  0  0  0  0
   -0.0058   11.9898   -1.8793 C   0  0  0  0  0  0  0  0  0  0  0  0
  1  2  1  0
  2  3  1  0
  3  4  1  0
  4  5  2  0
  4  6  1  0
  6  7  1  0
  7  8  1  0
  8  9  2  0
  9 10  1  0
 10 11  1  0
 11 12  2  0
 12 13  1  0
 13 14  2  0
 14 15  1  0
 15 16  2  0
 16  8  1  0
 16 11  1  0
M  END
$$$$
