
     RDKit          3D

 19 20  0  0  0  0  0  0  0  0999 V2000
  -19.1381    3.2512   15.7278 N   0  0  0  0  0  0  0  0  0  0  0  0
  -19.7774    4.5661   15.7162 C   0  0  0  0  0  0  0  0  0  0  0  0
  -20.4274    4.9131   17.0484 C   0  0  0  0  0  0  0  0  0  0  0  0
  -21.7566    4.2117   17.2412 C   0  0  0  0  0  0  0  0  0  0  0  0
  -21.9146    3.3948   18.1517 O   0  0  0  0  0  0  0  0  0  0  0  0
  -22.8699    4.5409   16.2610 C   0  0  0  0  0  0  0  0  0  0  0  0
  -24.2473    4.3464   16.8803 C   0  0  0  0  0  0  0  0  0  0  0  0
  -24.5170    5.3428   17.9943 C   0  0  0  0  0  0  0  0  0  0  0  0
  -23.7835    6.3161   18.1824 O   0  0  0  0  0  0  0  0  0  0  0  0
  -25.7509    5.0980   18.8427 C   0  0  0  0  0  0  0  0  0  0  0  0
  -27.0012    5.3816   18.0811 C   0  0  0  0  0  0  0  0  0  0  0  0
  -27.5407    6.6288   17.8395 C   0  0  0  0  0  0  0  0  0  0  0  0
  -28.6804    6.4696   17.1000 N   0  0  0  0  0  0  0  0  0  0  0  0
  -28.8938    5.1411   16.8367 C   0  0  0  0  0  0  0  0  0  0  0  0
  -29.9191    4.5225   16.1115 C   0  0  0  0  0  0  0  0  0  0  0  0
  -29.8845    3.1269   15.9966 C   0  0  0  0  0  0  0  0  0  0  0  0
  -28.8645    2.3865   16.5855 C   0  0  0  0  0  0  0  0  0  0  0  0
  -27.8498    3.0211   17.3125 C   0  0  0  0  0  0  0  0  0  0  0  0
  -27.8602    4.4285   17.4427 C   0  0  0  0  0  0  0  0  0  0  0  0
  1  2  1  0
  2  3  1  0
  3  4  1  0
  4  5  2  0
  4  6  1  0
  6  7  1  0
  7  8  1  0
  8  9  2  0
  8 10  1  0
 10 11  1  0
 11 12  2  0
 12 13  1  0
 13 14  1  0
 14 15  2  0
 15 16  1  0
 16 17  2  0
 17 18  1  0
 18 19  2  0
 19 11  1  0
 19 14  1  0
M  END
$$$$
