
     RDKit          3D

 16 17  0  0  0  0  0  0  0  0999 V2000
   11.3027    3.9327    4.6490 N   0  0  0  0  0  0  0  0  0  0  0  0
   10.3985    3.8008    5.7913 C   0  0  0  0  0  0  0  0  0  0  0  0
    8.9857    3.4823    5.3184 C   0  0  0  0  0  0  0  0  0  0  0  0
    8.0238    3.3280    6.4825 C   0  0  0  0  0  0  0  0  0  0  0  0
    8.3494    3.5887    7.6400 O   0  0  0  0  0  0  0  0  0  0  0  0
    6.6277    2.8585    6.1207 C   0  0  0  0  0  0  0  0  0  0  0  0
    5.7342    2.7128    7.3487 C   0  0  0  0  0  0  0  0  0  0  0  0
    4.3594    2.2495    6.9824 C   0  0  0  0  0  0  0  0  0  0  0  0
    3.9104    0.9432    6.9779 C   0  0  0  0  0  0  0  0  0  0  0  0
    2.6007    0.9396    6.5806 N   0  0  0  0  0  0  0  0  0  0  0  0
    2.1790    2.2216    6.3176 C   0  0  0  0  0  0  0  0  0  0  0  0
    0.9323    2.6904    5.8860 C   0  0  0  0  0  0  0  0  0  0  0  0
    0.7863    4.0684    5.7023 C   0  0  0  0  0  0  0  0  0  0  0  0
    1.8456    4.9400    5.9425 C   0  0  0  0  0  0  0  0  0  0  0  0
    3.0854    4.4540    6.3737 C   0  0  0  0  0  0  0  0  0  0  0  0
    3.2601    3.0678    6.5655 C   0  0  0  0  0  0  0  0  0  0  0  0
  1  2  1  0
  2  3  1  0
  3  4  1  0
  4  5  2  0
  4  6  1  0
  6  7  1  0
  7  8  1  0
  8  9  2  0
  9 10  1  0
 10 11  1  0
 11 12  2  0
 12 13  1  0
 13 14  2  0
 14 15  1  0
 15 16  2  0
 16  8  1  0
 16 11  1  0
M  END
$$$$
