
     RDKit          3D

 16 17  0  0  0  0  0  0  0  0999 V2000
    3.0014   -6.4786   67.1625 N   0  0  0  0  0  0  0  0  0  0  0  0
    3.6923   -7.4854   66.5442 C   0  0  0  0  0  0  0  0  0  0  0  0
    4.3908   -7.2746   65.5633 O   0  0  0  0  0  0  0  0  0  0  0  0
    3.5200   -8.8339   67.1339 C   0  0  0  0  0  0  0  0  0  0  0  0
    2.1966   -9.3146   67.2081 C   0  0  0  0  0  0  0  0  0  0  0  0
    1.9397  -10.5997   67.6793 C   0  0  0  0  0  0  0  0  0  0  0  0
    3.0026  -11.4021   68.0641 C   0  0  0  0  0  0  0  0  0  0  0  0
    2.7629  -12.6413   68.5123 F   0  0  0  0  0  0  0  0  0  0  0  0
    4.3131  -10.9394   67.9925 C   0  0  0  0  0  0  0  0  0  0  0  0
    4.6072   -9.6399   67.5369 C   0  0  0  0  0  0  0  0  0  0  0  0
    5.9639   -9.2795   67.5384 N   0  0  0  0  0  0  0  0  0  0  0  0
    6.3314   -7.9806   68.1021 C   0  0  0  0  0  0  0  0  0  0  0  0
    7.8093   -8.0273   68.5006 C   0  0  0  0  0  0  0  0  0  0  0  0
    8.6892   -8.7221   67.4550 C   0  0  0  0  0  0  0  0  0  0  0  0
    7.9708   -8.8887   66.1203 C   0  0  0  0  0  0  0  0  0  0  0  0
    6.6455   -9.6415   66.2805 C   0  0  0  0  0  0  0  0  0  0  0  0
  1  2  1  0
  2  3  2  0
  2  4  1  0
  4  5  2  0
  5  6  1  0
  6  7  2  0
  7  8  1  0
  7  9  1  0
  9 10  2  0
 10 11  1  0
 11 12  1  0
 12 13  1  0
 13 14  1  0
 14 15  1  0
 15 16  1  0
 10  4  1  0
 16 11  1  0
M  END
$$$$
