
     RDKit          3D

 19 20  0  0  0  0  0  0  0  0999 V2000
   11.1844   -7.0203   -8.0418 N   0  0  0  0  0  0  0  0  0  0  0  0
   11.6915   -7.5380   -9.3072 C   0  0  0  0  0  0  0  0  0  0  0  0
   11.7215   -6.4591  -10.3794 C   0  0  0  0  0  0  0  0  0  0  0  0
   10.3294   -6.0786  -10.8396 C   0  0  0  0  0  0  0  0  0  0  0  0
    9.5726   -6.8988  -11.3633 O   0  0  0  0  0  0  0  0  0  0  0  0
    9.9008   -4.6516  -10.6498 C   0  0  0  0  0  0  0  0  0  0  0  0
    9.4651   -4.3445   -9.2441 C   0  0  0  0  0  0  0  0  0  0  0  0
   10.2585   -3.8684   -8.4291 O   0  0  0  0  0  0  0  0  0  0  0  0
    8.0348   -4.6604   -8.8674 C   0  0  0  0  0  0  0  0  0  0  0  0
    7.9428   -5.9662   -8.0923 C   0  0  0  0  0  0  0  0  0  0  0  0
    6.5225   -6.3527   -7.8276 C   0  0  0  0  0  0  0  0  0  0  0  0
    5.7759   -6.0328   -6.7108 C   0  0  0  0  0  0  0  0  0  0  0  0
    4.5256   -6.5691   -6.8625 N   0  0  0  0  0  0  0  0  0  0  0  0
    4.4339   -7.2341   -8.0627 C   0  0  0  0  0  0  0  0  0  0  0  0
    3.3569   -7.9231   -8.6336 C   0  0  0  0  0  0  0  0  0  0  0  0
    3.5561   -8.5134   -9.8852 C   0  0  0  0  0  0  0  0  0  0  0  0
    4.7833   -8.4173  -10.5368 C   0  0  0  0  0  0  0  0  0  0  0  0
    5.8495   -7.7245   -9.9519 C   0  0  0  0  0  0  0  0  0  0  0  0
    5.6744   -7.1196   -8.6901 C   0  0  0  0  0  0  0  0  0  0  0  0
  1  2  1  0
  2  3  1  0
  3  4  1  0
  4  5  2  0
  4  6  1  0
  6  7  1  0
  7  8  2  0
  7  9  1  0
  9 10  1  0
 10 11  1  0
 11 12  2  0
 12 13  1  0
 13 14  1  0
 14 15  2  0
 15 16  1  0
 16 17  2  0
 17 18  1  0
 18 19  2  0
 19 11  1  0
 19 14  1  0
M  END
$$$$
