
     RDKit          3D

 24 26  0  0  0  0  0  0  0  0999 V2000
   -3.6399  -21.3641   57.4051 C   0  0  0  0  0  0  0  0  0  0  0  0
   -3.2927  -20.0941   56.7795 N   0  0  0  0  0  0  0  0  0  0  0  0
   -4.3011  -19.6617   55.8765 C   0  0  0  0  0  0  0  0  0  0  0  0
   -5.4358  -19.0351   56.4128 C   0  0  0  0  0  0  0  0  0  0  0  0
   -6.5003  -18.6524   55.5975 C   0  0  0  0  0  0  0  0  0  0  0  0
   -6.4479  -18.9075   54.2320 C   0  0  0  0  0  0  0  0  0  0  0  0
   -7.4160  -18.5891   53.3175 O   0  0  0  0  0  0  0  0  0  0  0  0
   -8.6008  -17.9839   53.8206 C   0  0  0  0  0  0  0  0  0  0  0  0
   -5.3241  -19.5477   53.6900 C   0  0  0  0  0  0  0  0  0  0  0  0
   -4.2311  -19.9452   54.4848 C   0  0  0  0  0  0  0  0  0  0  0  0
   -3.0980  -20.6216   53.9395 N   0  0  0  0  0  0  0  0  0  0  0  0
   -3.3156  -21.4574   52.7609 C   0  0  0  0  0  0  0  0  0  0  0  0
   -4.2151  -22.4924   53.1108 O   0  0  0  0  0  0  0  0  0  0  0  0
   -2.0354  -22.1240   52.3027 C   0  0  0  0  0  0  0  0  0  0  0  0
   -1.0371  -21.0614   51.9590 C   0  0  0  0  0  0  0  0  0  0  0  0
   -0.0876  -21.2990   51.2094 O   0  0  0  0  0  0  0  0  0  0  0  0
   -1.2359  -19.6928   52.5445 C   0  0  0  0  0  0  0  0  0  0  0  0
   -1.8788  -19.7581   53.9425 C   0  0  0  0  0  0  0  0  0  0  0  0
   -0.9220  -19.9552   55.0503 N   0  0  0  0  0  0  0  0  0  0  0  0
   -0.0023  -18.8449   55.2800 C   0  0  0  0  0  0  0  0  0  0  0  0
    0.5010  -18.8816   56.7293 C   0  0  0  0  0  0  0  0  0  0  0  0
    0.6767  -20.3010   57.2747 C   0  0  0  0  0  0  0  0  0  0  0  0
    0.8920  -21.2959   56.1440 C   0  0  0  0  0  0  0  0  0  0  0  0
   -0.2589  -21.2580   55.1247 C   0  0  0  0  0  0  0  0  0  0  0  0
  1  2  1  0
  2  3  1  0
  3  4  2  0
  4  5  1  0
  5  6  2  0
  6  7  1  0
  7  8  1  0
  6  9  1  0
  9 10  2  0
 10 11  1  0
 11 12  1  0
 12 13  1  0
 12 14  1  0
 14 15  1  0
 15 16  2  0
 15 17  1  0
 17 18  1  0
 18 19  1  0
 19 20  1  0
 20 21  1  0
 21 22  1  0
 22 23  1  0
 23 24  1  0
 10  3  1  0
 18 11  1  0
 24 19  1  0
M  END
$$$$
