
     RDKit          3D

 16 17  0  0  0  0  0  0  0  0999 V2000
   40.4159    9.2710  -26.4046 N   0  0  0  0  0  0  0  0  0  0  0  0
   40.9775    8.1801  -25.6195 C   0  0  0  0  0  0  0  0  0  0  0  0
   39.8812    7.4925  -24.8090 C   0  0  0  0  0  0  0  0  0  0  0  0
   40.4637    6.4104  -23.9089 C   0  0  0  0  0  0  0  0  0  0  0  0
   39.3962    5.5218  -23.3008 C   0  0  0  0  0  0  0  0  0  0  0  0
   39.3475    4.3222  -23.5878 O   0  0  0  0  0  0  0  0  0  0  0  0
   38.4204    6.1461  -22.3200 C   0  0  0  0  0  0  0  0  0  0  0  0
   37.1147    6.4895  -22.9580 C   0  0  0  0  0  0  0  0  0  0  0  0
   36.2478    5.6036  -23.5701 C   0  0  0  0  0  0  0  0  0  0  0  0
   35.1629    6.3000  -24.0247 N   0  0  0  0  0  0  0  0  0  0  0  0
   35.2904    7.6327  -23.7134 C   0  0  0  0  0  0  0  0  0  0  0  0
   34.4281    8.7041  -23.9762 C   0  0  0  0  0  0  0  0  0  0  0  0
   34.8160    9.9721  -23.5354 C   0  0  0  0  0  0  0  0  0  0  0  0
   36.0178   10.1576  -22.8577 C   0  0  0  0  0  0  0  0  0  0  0  0
   36.8674    9.0748  -22.6021 C   0  0  0  0  0  0  0  0  0  0  0  0
   36.5029    7.7837  -23.0387 C   0  0  0  0  0  0  0  0  0  0  0  0
  1  2  1  0
  2  3  1  0
  3  4  1  0
  4  5  1  0
  5  6  2  0
  5  7  1  0
  7  8  1  0
  8  9  2  0
  9 10  1  0
 10 11  1  0
 11 12  2  0
 12 13  1  0
 13 14  2  0
 14 15  1  0
 15 16  2  0
 16  8  1  0
 16 11  1  0
M  END
$$$$
