
     RDKit          3D

 27 30  0  0  0  0  0  0  0  0999 V2000
  -18.3291    0.0692   -0.7050 N   0  0  0  0  0  0  0  0  0  0  0  0
  -19.4264   -0.2828    0.1221 C   0  0  0  0  0  0  0  0  0  0  0  0
  -20.1363    0.7074    0.7941 C   0  0  0  0  0  0  0  0  0  0  0  0
  -21.1751    0.3166    1.6224 C   0  0  0  0  0  0  0  0  0  0  0  0
  -21.5684   -0.9672    1.7960 N   0  0  0  0  0  0  0  0  0  0  0  0
  -20.8933   -1.9027    1.0864 C   0  0  0  0  0  0  0  0  0  0  0  0
  -19.8162   -1.6332    0.2373 C   0  0  0  0  0  0  0  0  0  0  0  0
  -19.1149   -2.6101   -0.5003 N   0  0  0  0  0  0  0  0  0  0  0  0
  -19.7695   -2.9104   -1.7929 C   0  0  0  0  0  0  0  0  0  0  0  0
  -20.6399   -4.1536   -1.7119 C   0  0  0  0  0  0  0  0  0  0  0  0
  -21.6867   -4.2674   -2.3500 O   0  0  0  0  0  0  0  0  0  0  0  0
  -20.1428   -5.2815   -0.8323 C   0  0  0  0  0  0  0  0  0  0  0  0
  -18.6862   -5.0571   -0.4505 C   0  0  0  0  0  0  0  0  0  0  0  0
  -18.5121   -3.7132    0.2806 C   0  0  0  0  0  0  0  0  0  0  0  0
  -17.0255   -3.3546    0.5003 C   0  0  0  0  0  0  0  0  0  0  0  0
  -16.2705   -4.3476    1.3911 C   0  0  0  0  0  0  0  0  0  0  0  0
  -14.8429   -4.0436    1.4619 N   0  0  0  0  0  0  0  0  0  0  0  0
  -14.5239   -2.8757    2.2838 C   0  0  0  0  0  0  0  0  0  0  0  0
  -13.0686   -2.5404    2.1772 C   0  0  0  0  0  0  0  0  0  0  0  0
  -12.4960   -1.7827    1.2582 N   0  0  0  0  0  0  0  0  0  0  0  0
  -11.1564   -1.7800    1.5576 C   0  0  0  0  0  0  0  0  0  0  0  0
  -10.0912   -1.1467    0.8991 C   0  0  0  0  0  0  0  0  0  0  0  0
   -8.7967   -1.2998    1.4133 C   0  0  0  0  0  0  0  0  0  0  0  0
   -8.5697   -2.0658    2.5607 C   0  0  0  0  0  0  0  0  0  0  0  0
   -9.6223   -2.7063    3.2325 C   0  0  0  0  0  0  0  0  0  0  0  0
  -10.9010   -2.5385    2.6954 C   0  0  0  0  0  0  0  0  0  0  0  0
  -12.1342   -3.0109    3.0709 N   0  0  0  0  0  0  0  0  0  0  0  0
  1  2  1  0
  2  3  2  0
  3  4  1  0
  4  5  2  0
  5  6  1  0
  6  7  2  0
  7  8  1  0
  8  9  1  0
  9 10  1  0
 10 11  2  0
 10 12  1  0
 12 13  1  0
 13 14  1  0
 14 15  1  0
 15 16  1  0
 16 17  1  0
 17 18  1  0
 18 19  1  0
 19 20  2  0
 20 21  1  0
 21 22  2  0
 22 23  1  0
 23 24  2  0
 24 25  1  0
 25 26  2  0
 26 27  1  0
  7  2  1  0
 14  8  1  0
 27 19  1  0
 26 21  1  0
M  END
$$$$
