
     RDKit          3D

 16 17  0  0  0  0  0  0  0  0999 V2000
   -9.1069    1.0577    9.7277 N   0  0  0  0  0  0  0  0  0  0  0  0
   -8.5453   -0.0331   10.5128 C   0  0  0  0  0  0  0  0  0  0  0  0
   -9.6417   -0.7207   11.3233 C   0  0  0  0  0  0  0  0  0  0  0  0
   -9.0592   -1.8028   12.2234 C   0  0  0  0  0  0  0  0  0  0  0  0
  -10.1267   -2.6914   12.8315 C   0  0  0  0  0  0  0  0  0  0  0  0
  -10.1754   -3.8910   12.5445 O   0  0  0  0  0  0  0  0  0  0  0  0
  -11.1024   -2.0671   13.8123 C   0  0  0  0  0  0  0  0  0  0  0  0
  -12.4082   -1.7237   13.1743 C   0  0  0  0  0  0  0  0  0  0  0  0
  -13.2751   -2.6096   12.5622 C   0  0  0  0  0  0  0  0  0  0  0  0
  -14.3600   -1.9132   12.1076 N   0  0  0  0  0  0  0  0  0  0  0  0
  -14.2324   -0.5806   12.4189 C   0  0  0  0  0  0  0  0  0  0  0  0
  -15.0947    0.4909   12.1561 C   0  0  0  0  0  0  0  0  0  0  0  0
  -14.7068    1.7588   12.5969 C   0  0  0  0  0  0  0  0  0  0  0  0
  -13.5051    1.9444   13.2746 C   0  0  0  0  0  0  0  0  0  0  0  0
  -12.6554    0.8615   13.5302 C   0  0  0  0  0  0  0  0  0  0  0  0
  -13.0200   -0.4296   13.0936 C   0  0  0  0  0  0  0  0  0  0  0  0
  1  2  1  0
  2  3  1  0
  3  4  1  0
  4  5  1  0
  5  6  2  0
  5  7  1  0
  7  8  1  0
  8  9  2  0
  9 10  1  0
 10 11  1  0
 11 12  2  0
 12 13  1  0
 13 14  2  0
 14 15  1  0
 15 16  2  0
 16  8  1  0
 16 11  1  0
M  END
$$$$
