
     RDKit          3D

 27 29  0  0  0  0  0  0  0  0999 V2000
   -4.4846   19.1796  -30.6600 N   0  0  0  0  0  0  0  0  0  0  0  0
   -5.2981   19.5944  -31.8009 C   0  0  0  0  0  0  0  0  0  0  0  0
   -4.4487   20.1484  -32.9196 C   0  0  0  0  0  0  0  0  0  0  0  0
   -3.9536   21.4580  -32.7980 C   0  0  0  0  0  0  0  0  0  0  0  0
   -3.1909   21.9903  -33.8232 C   0  0  0  0  0  0  0  0  0  0  0  0
   -2.8812   21.3186  -34.9476 N   0  0  0  0  0  0  0  0  0  0  0  0
   -3.3778   20.0615  -35.0510 C   0  0  0  0  0  0  0  0  0  0  0  0
   -4.1516   19.4071  -34.0812 C   0  0  0  0  0  0  0  0  0  0  0  0
   -4.5739   18.0672  -34.2094 N   0  0  0  0  0  0  0  0  0  0  0  0
   -5.0096   17.6507  -35.5554 C   0  0  0  0  0  0  0  0  0  0  0  0
   -5.5718   16.2364  -35.5142 C   0  0  0  0  0  0  0  0  0  0  0  0
   -6.5585   15.9028  -36.1744 O   0  0  0  0  0  0  0  0  0  0  0  0
   -4.7679   15.2148  -34.7426 C   0  0  0  0  0  0  0  0  0  0  0  0
   -4.3217   15.7838  -33.4014 C   0  0  0  0  0  0  0  0  0  0  0  0
   -3.6269   17.1411  -33.5615 C   0  0  0  0  0  0  0  0  0  0  0  0
   -2.4720   16.9975  -34.3879 O   0  0  0  0  0  0  0  0  0  0  0  0
   -1.2788   16.8797  -33.6286 C   0  0  0  0  0  0  0  0  0  0  0  0
   -0.8952   18.1983  -33.2234 N   0  0  0  0  0  0  0  0  0  0  0  0
   -0.6036   18.4843  -31.9112 C   0  0  0  0  0  0  0  0  0  0  0  0
   -0.5149   17.6283  -31.0369 O   0  0  0  0  0  0  0  0  0  0  0  0
   -0.4367   19.9244  -31.5713 C   0  0  0  0  0  0  0  0  0  0  0  0
    0.0176   20.8634  -32.5057 C   0  0  0  0  0  0  0  0  0  0  0  0
    0.1479   22.2071  -32.1391 C   0  0  0  0  0  0  0  0  0  0  0  0
   -0.1684   22.6090  -30.8417 C   0  0  0  0  0  0  0  0  0  0  0  0
   -0.0155   24.2636  -30.4005 Cl  0  0  0  0  0  0  0  0  0  0  0  0
   -0.6057   21.6787  -29.9009 C   0  0  0  0  0  0  0  0  0  0  0  0
   -0.7361   20.3361  -30.2645 C   0  0  0  0  0  0  0  0  0  0  0  0
  1  2  1  0
  2  3  1  0
  3  4  2  0
  4  5  1  0
  5  6  2  0
  6  7  1  0
  7  8  2  0
  8  9  1  0
  9 10  1  0
 10 11  1  0
 11 12  2  0
 11 13  1  0
 13 14  1  0
 14 15  1  0
 15 16  1  0
 16 17  1  0
 17 18  1  0
 18 19  1  0
 19 20  2  0
 19 21  1  0
 21 22  2  0
 22 23  1  0
 23 24  2  0
 24 25  1  0
 24 26  1  0
 26 27  2  0
  8  3  1  0
 15  9  1  0
 27 21  1  0
M  END
$$$$
