
     RDKit          3D

 19 20  0  0  0  0  0  0  0  0999 V2000
    4.3150    0.0766   15.9977 N   0  0  0  0  0  0  0  0  0  0  0  0
    4.8220   -0.4410   14.7323 C   0  0  0  0  0  0  0  0  0  0  0  0
    4.8520    0.6379   13.6601 C   0  0  0  0  0  0  0  0  0  0  0  0
    3.4600    1.0183   13.1998 C   0  0  0  0  0  0  0  0  0  0  0  0
    2.7032    0.1981   12.6761 O   0  0  0  0  0  0  0  0  0  0  0  0
    3.0313    2.4454   13.3897 C   0  0  0  0  0  0  0  0  0  0  0  0
    2.5956    2.7525   14.7954 C   0  0  0  0  0  0  0  0  0  0  0  0
    3.3891    3.2285   15.6104 O   0  0  0  0  0  0  0  0  0  0  0  0
    1.1654    2.4365   15.1721 C   0  0  0  0  0  0  0  0  0  0  0  0
    1.0734    1.1307   15.9472 C   0  0  0  0  0  0  0  0  0  0  0  0
   -0.3469    0.7443   16.2119 C   0  0  0  0  0  0  0  0  0  0  0  0
   -1.0936    1.0642   17.3286 C   0  0  0  0  0  0  0  0  0  0  0  0
   -2.3438    0.5279   17.1770 N   0  0  0  0  0  0  0  0  0  0  0  0
   -2.4356   -0.1372   15.9768 C   0  0  0  0  0  0  0  0  0  0  0  0
   -3.5125   -0.8261   15.4059 C   0  0  0  0  0  0  0  0  0  0  0  0
   -3.3133   -1.4164   14.1543 C   0  0  0  0  0  0  0  0  0  0  0  0
   -2.0861   -1.3204   13.5026 C   0  0  0  0  0  0  0  0  0  0  0  0
   -1.0199   -0.6276   14.0876 C   0  0  0  0  0  0  0  0  0  0  0  0
   -1.1951   -0.0226   15.3494 C   0  0  0  0  0  0  0  0  0  0  0  0
  1  2  1  0
  2  3  1  0
  3  4  1  0
  4  5  2  0
  4  6  1  0
  6  7  1  0
  7  8  2  0
  7  9  1  0
  9 10  1  0
 10 11  1  0
 11 12  2  0
 12 13  1  0
 13 14  1  0
 14 15  2  0
 15 16  1  0
 16 17  2  0
 17 18  1  0
 18 19  2  0
 19 11  1  0
 19 14  1  0
M  END
$$$$
