
     RDKit          3D

 27 29  0  0  0  0  0  0  0  0999 V2000
  -23.6787   -8.8125   11.3269 C   0  0  0  0  0  0  0  0  0  0  0  0
  -24.8968   -8.4014   12.0241 N   0  0  0  0  0  0  0  0  0  0  0  0
  -25.5374   -7.2545   11.3582 C   0  0  0  0  0  0  0  0  0  0  0  0
  -26.0367   -7.5988    9.9589 C   0  0  0  0  0  0  0  0  0  0  0  0
  -25.4307   -7.2141    8.9570 O   0  0  0  0  0  0  0  0  0  0  0  0
  -27.2917   -8.3951    9.7913 C   0  0  0  0  0  0  0  0  0  0  0  0
  -27.8656   -8.4662    8.5176 C   0  0  0  0  0  0  0  0  0  0  0  0
  -29.0414   -9.1918    8.3049 C   0  0  0  0  0  0  0  0  0  0  0  0
  -29.6551   -9.8697    9.3615 C   0  0  0  0  0  0  0  0  0  0  0  0
  -30.8204  -10.5804    9.2348 O   0  0  0  0  0  0  0  0  0  0  0  0
  -31.1146  -11.0836    7.9351 C   0  0  0  0  0  0  0  0  0  0  0  0
  -29.0936   -9.8056   10.6511 C   0  0  0  0  0  0  0  0  0  0  0  0
  -29.7177  -10.5245   11.8294 C   0  0  0  0  0  0  0  0  0  0  0  0
  -30.9925   -9.9413   12.2587 N   0  0  0  0  0  0  0  0  0  0  0  0
  -30.8233   -8.6240   12.8997 C   0  0  0  0  0  0  0  0  0  0  0  0
  -32.1852   -7.9624   13.1431 C   0  0  0  0  0  0  0  0  0  0  0  0
  -32.4814   -7.5938   14.2824 O   0  0  0  0  0  0  0  0  0  0  0  0
  -33.0299   -7.7639   11.9708 C   0  0  0  0  0  0  0  0  0  0  0  0
  -34.0837   -6.9657   11.9411 N   0  0  0  0  0  0  0  0  0  0  0  0
  -34.5876   -7.0564   10.6674 C   0  0  0  0  0  0  0  0  0  0  0  0
  -35.6949   -6.4159   10.0934 C   0  0  0  0  0  0  0  0  0  0  0  0
  -36.0065   -6.6845    8.7543 C   0  0  0  0  0  0  0  0  0  0  0  0
  -35.2325   -7.5735    8.0040 C   0  0  0  0  0  0  0  0  0  0  0  0
  -34.1243   -8.2225    8.5612 C   0  0  0  0  0  0  0  0  0  0  0  0
  -33.8353   -7.9333    9.8959 C   0  0  0  0  0  0  0  0  0  0  0  0
  -32.8567   -8.3732   10.7464 N   0  0  0  0  0  0  0  0  0  0  0  0
  -27.9090   -9.0672   10.8513 C   0  0  0  0  0  0  0  0  0  0  0  0
  1  2  1  0
  2  3  1  0
  3  4  1  0
  4  5  2  0
  4  6  1  0
  6  7  2  0
  7  8  1  0
  8  9  2  0
  9 10  1  0
 10 11  1  0
  9 12  1  0
 12 13  1  0
 13 14  1  0
 14 15  1  0
 15 16  1  0
 16 17  2  0
 16 18  1  0
 18 19  2  0
 19 20  1  0
 20 21  2  0
 21 22  1  0
 22 23  2  0
 23 24  1  0
 24 25  2  0
 25 26  1  0
 12 27  2  0
 27  6  1  0
 26 18  1  0
 25 20  1  0
M  END
$$$$
