
     RDKit          3D

 19 20  0  0  0  0  0  0  0  0999 V2000
  -26.2413   -7.0648   19.9236 N   0  0  0  0  0  0  0  0  0  0  0  0
  -25.7342   -7.5825   18.6581 C   0  0  0  0  0  0  0  0  0  0  0  0
  -25.7042   -6.5035   17.5859 C   0  0  0  0  0  0  0  0  0  0  0  0
  -27.0962   -6.1231   17.1257 C   0  0  0  0  0  0  0  0  0  0  0  0
  -27.8530   -6.9433   16.6020 O   0  0  0  0  0  0  0  0  0  0  0  0
  -27.5249   -4.6961   17.3155 C   0  0  0  0  0  0  0  0  0  0  0  0
  -27.9606   -4.3890   18.7213 C   0  0  0  0  0  0  0  0  0  0  0  0
  -27.1671   -3.9129   19.5362 O   0  0  0  0  0  0  0  0  0  0  0  0
  -29.3908   -4.7049   19.0979 C   0  0  0  0  0  0  0  0  0  0  0  0
  -29.4829   -6.0107   19.8730 C   0  0  0  0  0  0  0  0  0  0  0  0
  -30.9031   -6.3972   20.1378 C   0  0  0  0  0  0  0  0  0  0  0  0
  -31.6498   -6.0773   21.2545 C   0  0  0  0  0  0  0  0  0  0  0  0
  -32.9001   -6.6136   21.1028 N   0  0  0  0  0  0  0  0  0  0  0  0
  -32.9918   -7.2786   19.9026 C   0  0  0  0  0  0  0  0  0  0  0  0
  -34.0687   -7.9676   19.3317 C   0  0  0  0  0  0  0  0  0  0  0  0
  -33.8695   -8.5579   18.0801 C   0  0  0  0  0  0  0  0  0  0  0  0
  -32.6423   -8.4618   17.4285 C   0  0  0  0  0  0  0  0  0  0  0  0
  -31.5761   -7.7690   18.0134 C   0  0  0  0  0  0  0  0  0  0  0  0
  -31.7513   -7.1640   19.2752 C   0  0  0  0  0  0  0  0  0  0  0  0
  1  2  1  0
  2  3  1  0
  3  4  1  0
  4  5  2  0
  4  6  1  0
  6  7  1  0
  7  8  2  0
  7  9  1  0
  9 10  1  0
 10 11  1  0
 11 12  2  0
 12 13  1  0
 13 14  1  0
 14 15  2  0
 15 16  1  0
 16 17  2  0
 17 18  1  0
 18 19  2  0
 19 11  1  0
 19 14  1  0
M  END
$$$$
