
     RDKit          3D

 15 16  0  0  0  0  0  0  0  0999 V2000
   15.9994   28.1172  -13.2843 N   0  0  0  0  0  0  0  0  0  0  0  0
   15.3126   27.3036  -12.4340 C   0  0  0  0  0  0  0  0  0  0  0  0
   14.9701   27.7118  -11.3293 O   0  0  0  0  0  0  0  0  0  0  0  0
   14.9989   25.9148  -12.9023 C   0  0  0  0  0  0  0  0  0  0  0  0
   14.1242   25.1774  -12.0811 C   0  0  0  0  0  0  0  0  0  0  0  0
   13.7522   23.8755  -12.4122 C   0  0  0  0  0  0  0  0  0  0  0  0
   14.2531   23.2899  -13.5675 C   0  0  0  0  0  0  0  0  0  0  0  0
   15.1258   24.0051  -14.3910 C   0  0  0  0  0  0  0  0  0  0  0  0
   15.5163   25.3262  -14.0846 C   0  0  0  0  0  0  0  0  0  0  0  0
   16.4288   26.0236  -14.9285 N   0  0  0  0  0  0  0  0  0  0  0  0
   15.9473   26.1379  -16.3208 C   0  0  0  0  0  0  0  0  0  0  0  0
   16.8827   27.0704  -17.0919 C   0  0  0  0  0  0  0  0  0  0  0  0
   18.3285   26.5796  -17.0230 C   0  0  0  0  0  0  0  0  0  0  0  0
   18.7657   26.3634  -15.5747 C   0  0  0  0  0  0  0  0  0  0  0  0
   17.7889   25.4524  -14.8295 C   0  0  0  0  0  0  0  0  0  0  0  0
  1  2  1  0
  2  3  2  0
  2  4  1  0
  4  5  2  0
  5  6  1  0
  6  7  2  0
  7  8  1  0
  8  9  2  0
  9 10  1  0
 10 11  1  0
 11 12  1  0
 12 13  1  0
 13 14  1  0
 14 15  1  0
  9  4  1  0
 15 10  1  0
M  END
$$$$
