
     RDKit          3D

 24 26  0  0  0  0  0  0  0  0999 V2000
  -41.8659    2.2167   27.7889 C   0  0  0  0  0  0  0  0  0  0  0  0
  -42.7698    2.6877   26.7488 N   0  0  0  0  0  0  0  0  0  0  0  0
  -42.0583    3.2577   25.6029 C   0  0  0  0  0  0  0  0  0  0  0  0
  -41.4670    4.6203   25.8777 C   0  0  0  0  0  0  0  0  0  0  0  0
  -42.2827    5.7565   25.9161 C   0  0  0  0  0  0  0  0  0  0  0  0
  -41.7396    7.0166   26.1860 C   0  0  0  0  0  0  0  0  0  0  0  0
  -40.3701    7.1646   26.4234 C   0  0  0  0  0  0  0  0  0  0  0  0
  -39.7512    8.3542   26.7068 O   0  0  0  0  0  0  0  0  0  0  0  0
  -40.5534    9.5273   26.7002 C   0  0  0  0  0  0  0  0  0  0  0  0
  -39.5365    6.0320   26.3851 C   0  0  0  0  0  0  0  0  0  0  0  0
  -38.0498    6.1310   26.6554 C   0  0  0  0  0  0  0  0  0  0  0  0
  -37.7497    6.1198   28.1572 C   0  0  0  0  0  0  0  0  0  0  0  0
  -36.2526    6.2333   28.4450 C   0  0  0  0  0  0  0  0  0  0  0  0
  -35.5716    5.0153   28.0347 N   0  0  0  0  0  0  0  0  0  0  0  0
  -34.1906    5.0027   28.2655 C   0  0  0  0  0  0  0  0  0  0  0  0
  -33.4567    6.1468   28.2079 N   0  0  0  0  0  0  0  0  0  0  0  0
  -32.1226    6.0777   28.4138 C   0  0  0  0  0  0  0  0  0  0  0  0
  -31.3719    4.9924   28.6928 N   0  0  0  0  0  0  0  0  0  0  0  0
  -32.1393    3.8955   28.7463 C   0  0  0  0  0  0  0  0  0  0  0  0
  -31.7312    2.6196   29.0045 N   0  0  0  0  0  0  0  0  0  0  0  0
  -32.8392    1.8166   28.9713 C   0  0  0  0  0  0  0  0  0  0  0  0
  -33.9340    2.4989   28.7070 N   0  0  0  0  0  0  0  0  0  0  0  0
  -33.5064    3.8052   28.5543 C   0  0  0  0  0  0  0  0  0  0  0  0
  -40.0954    4.7695   26.1174 C   0  0  0  0  0  0  0  0  0  0  0  0
  1  2  1  0
  2  3  1  0
  3  4  1  0
  4  5  2  0
  5  6  1  0
  6  7  2  0
  7  8  1  0
  8  9  1  0
  7 10  1  0
 10 11  1  0
 11 12  1  0
 12 13  1  0
 13 14  1  0
 14 15  1  0
 15 16  2  0
 16 17  1  0
 17 18  2  0
 18 19  1  0
 19 20  1  0
 20 21  1  0
 21 22  2  0
 22 23  1  0
 10 24  2  0
 24  4  1  0
 23 15  1  0
 23 19  2  0
M  END
$$$$
