
     RDKit          3D

 19 20  0  0  0  0  0  0  0  0999 V2000
   45.8021    6.6283  -44.0001 C   0  0  0  0  0  0  0  0  0  0  0  0
   46.5225    6.6350  -45.2675 N   0  0  0  0  0  0  0  0  0  0  0  0
   47.8908    6.0904  -45.1321 C   0  0  0  0  0  0  0  0  0  0  0  0
   47.9260    4.5439  -44.9994 C   0  0  0  0  0  0  0  0  0  0  0  0
   49.3666    4.0192  -44.9948 C   0  0  0  0  0  0  0  0  0  0  0  0
   49.9894    4.0902  -43.6123 C   0  0  0  0  0  0  0  0  0  0  0  0
   49.6130    4.9139  -42.7704 O   0  0  0  0  0  0  0  0  0  0  0  0
   51.0654    3.0728  -43.2793 C   0  0  0  0  0  0  0  0  0  0  0  0
   52.1835    3.0650  -44.2684 C   0  0  0  0  0  0  0  0  0  0  0  0
   52.4833    2.0520  -45.1598 C   0  0  0  0  0  0  0  0  0  0  0  0
   53.6035    2.4159  -45.8608 N   0  0  0  0  0  0  0  0  0  0  0  0
   54.0234    3.6650  -45.4739 C   0  0  0  0  0  0  0  0  0  0  0  0
   55.1022    4.4346  -45.9265 C   0  0  0  0  0  0  0  0  0  0  0  0
   55.3027    5.6826  -45.3298 C   0  0  0  0  0  0  0  0  0  0  0  0
   54.4593    6.1389  -44.3197 C   0  0  0  0  0  0  0  0  0  0  0  0
   53.3840    5.3566  -43.8798 C   0  0  0  0  0  0  0  0  0  0  0  0
   53.1577    4.0949  -44.4680 C   0  0  0  0  0  0  0  0  0  0  0  0
   47.2248    3.9989  -46.1393 O   0  0  0  0  0  0  0  0  0  0  0  0
   46.6048    2.7466  -45.8676 C   0  0  0  0  0  0  0  0  0  0  0  0
  1  2  1  0
  2  3  1  0
  3  4  1  0
  4  5  1  0
  5  6  1  0
  6  7  2  0
  6  8  1  0
  8  9  1  0
  9 10  2  0
 10 11  1  0
 11 12  1  0
 12 13  2  0
 13 14  1  0
 14 15  2  0
 15 16  1  0
 16 17  2  0
  4 18  1  0
 18 19  1  0
 17  9  1  0
 17 12  1  0
M  END
$$$$
