
     RDKit          3D

 29 32  0  0  0  0  0  0  0  0999 V2000
  -16.4272   -4.4436   -3.4853 N   0  0  0  0  0  0  0  0  0  0  0  0
  -17.3243   -5.2583   -2.6736 C   0  0  0  0  0  0  0  0  0  0  0  0
  -16.6779   -5.6916   -1.3578 C   0  0  0  0  0  0  0  0  0  0  0  0
  -15.4462   -6.5781   -1.5639 C   0  0  0  0  0  0  0  0  0  0  0  0
  -14.8701   -7.0650   -0.2511 C   0  0  0  0  0  0  0  0  0  0  0  0
  -15.1875   -8.3567    0.1936 C   0  0  0  0  0  0  0  0  0  0  0  0
  -14.6664   -8.8024    1.3976 C   0  0  0  0  0  0  0  0  0  0  0  0
  -13.8590   -8.0650    2.1827 N   0  0  0  0  0  0  0  0  0  0  0  0
  -13.5708   -6.8172    1.7381 C   0  0  0  0  0  0  0  0  0  0  0  0
  -14.0461   -6.2501    0.5484 C   0  0  0  0  0  0  0  0  0  0  0  0
  -13.7048   -4.9567    0.1193 N   0  0  0  0  0  0  0  0  0  0  0  0
  -13.9579   -3.8819    1.0910 C   0  0  0  0  0  0  0  0  0  0  0  0
  -13.3617   -2.5492    0.6193 C   0  0  0  0  0  0  0  0  0  0  0  0
  -13.2141   -2.4915   -0.8953 C   0  0  0  0  0  0  0  0  0  0  0  0
  -12.3582   -3.6476   -1.4313 C   0  0  0  0  0  0  0  0  0  0  0  0
  -12.3994   -4.9019   -0.5399 C   0  0  0  0  0  0  0  0  0  0  0  0
  -11.3716   -4.8304    0.4497 O   0  0  0  0  0  0  0  0  0  0  0  0
  -10.1872   -5.5214    0.0484 C   0  0  0  0  0  0  0  0  0  0  0  0
   -9.1059   -5.3260    1.1154 C   0  0  0  0  0  0  0  0  0  0  0  0
   -7.9194   -6.1310    0.8674 N   0  0  0  0  0  0  0  0  0  0  0  0
   -7.1180   -5.7866   -0.2187 C   0  0  0  0  0  0  0  0  0  0  0  0
   -7.0860   -4.5112   -0.6897 N   0  0  0  0  0  0  0  0  0  0  0  0
   -6.2756   -4.2200   -1.7319 C   0  0  0  0  0  0  0  0  0  0  0  0
   -5.4671   -5.0495   -2.4221 N   0  0  0  0  0  0  0  0  0  0  0  0
   -5.5439   -6.2932   -1.9300 C   0  0  0  0  0  0  0  0  0  0  0  0
   -4.8723   -7.3949   -2.3734 N   0  0  0  0  0  0  0  0  0  0  0  0
   -5.2562   -8.4535   -1.5951 C   0  0  0  0  0  0  0  0  0  0  0  0
   -6.1323   -8.0981   -0.6786 N   0  0  0  0  0  0  0  0  0  0  0  0
   -6.3133   -6.7413   -0.8711 C   0  0  0  0  0  0  0  0  0  0  0  0
  1  2  1  0
  2  3  1  0
  3  4  1  0
  4  5  1  0
  5  6  2  0
  6  7  1  0
  7  8  2  0
  8  9  1  0
  9 10  2  0
 10 11  1  0
 11 12  1  0
 12 13  1  0
 13 14  1  0
 14 15  1  0
 15 16  1  0
 16 17  1  0
 17 18  1  0
 18 19  1  0
 19 20  1  0
 20 21  1  0
 21 22  2  0
 22 23  1  0
 23 24  2  0
 24 25  1  0
 25 26  1  0
 26 27  1  0
 27 28  2  0
 28 29  1  0
 10  5  1  0
 16 11  1  0
 29 21  1  0
 29 25  2  0
M  END
$$$$
