
     RDKit          3D

 27 29  0  0  0  0  0  0  0  0999 V2000
   12.3089   -5.4471  -11.5764 N   0  0  0  0  0  0  0  0  0  0  0  0
   11.2012   -4.8979  -10.9970 C   0  0  0  0  0  0  0  0  0  0  0  0
   10.4131   -5.5690  -10.3441 O   0  0  0  0  0  0  0  0  0  0  0  0
   11.0007   -3.4409  -11.2136 C   0  0  0  0  0  0  0  0  0  0  0  0
   12.0964   -2.5826  -11.0225 C   0  0  0  0  0  0  0  0  0  0  0  0
   11.9435   -1.2028  -11.1686 C   0  0  0  0  0  0  0  0  0  0  0  0
   10.6971   -0.6785  -11.4985 C   0  0  0  0  0  0  0  0  0  0  0  0
   10.5053    1.0220  -11.6704 Cl  0  0  0  0  0  0  0  0  0  0  0  0
    9.6019   -1.5219  -11.6884 C   0  0  0  0  0  0  0  0  0  0  0  0
    9.7368   -2.9173  -11.5560 C   0  0  0  0  0  0  0  0  0  0  0  0
    8.5269   -3.7872  -11.7925 C   0  0  0  0  0  0  0  0  0  0  0  0
    8.0148   -4.3253  -10.5575 N   0  0  0  0  0  0  0  0  0  0  0  0
    6.7167   -4.7759  -10.4702 C   0  0  0  0  0  0  0  0  0  0  0  0
    5.8559   -4.5613  -11.3136 O   0  0  0  0  0  0  0  0  0  0  0  0
    6.4150   -5.5827   -9.2672 C   0  0  0  0  0  0  0  0  0  0  0  0
    7.1676   -6.7569   -9.1051 C   0  0  0  0  0  0  0  0  0  0  0  0
    6.8734   -7.5862   -8.0422 C   0  0  0  0  0  0  0  0  0  0  0  0
    5.8954   -7.3313   -7.1560 N   0  0  0  0  0  0  0  0  0  0  0  0
    5.1883   -6.1887   -7.3439 C   0  0  0  0  0  0  0  0  0  0  0  0
    5.3872   -5.2536   -8.3687 C   0  0  0  0  0  0  0  0  0  0  0  0
    4.5655   -4.1135   -8.3790 N   0  0  0  0  0  0  0  0  0  0  0  0
    5.1800   -2.8239   -8.7054 C   0  0  0  0  0  0  0  0  0  0  0  0
    4.3125   -1.7114   -8.1113 C   0  0  0  0  0  0  0  0  0  0  0  0
    2.8164   -2.0236   -8.1052 C   0  0  0  0  0  0  0  0  0  0  0  0
    2.4411   -3.0942   -9.1071 C   0  0  0  0  0  0  0  0  0  0  0  0
    1.4396   -2.9803   -9.8163 O   0  0  0  0  0  0  0  0  0  0  0  0
    3.2997   -4.3553   -9.1143 C   0  0  0  0  0  0  0  0  0  0  0  0
  1  2  1  0
  2  3  2  0
  2  4  1  0
  4  5  2  0
  5  6  1  0
  6  7  2  0
  7  8  1  0
  7  9  1  0
  9 10  2  0
 10 11  1  0
 11 12  1  0
 12 13  1  0
 13 14  2  0
 13 15  1  0
 15 16  2  0
 16 17  1  0
 17 18  2  0
 18 19  1  0
 19 20  2  0
 20 21  1  0
 21 22  1  0
 22 23  1  0
 23 24  1  0
 24 25  1  0
 25 26  2  0
 25 27  1  0
 10  4  1  0
 20 15  1  0
 27 21  1  0
M  END
$$$$
