
     RDKit          3D

 28 31  0  0  0  0  0  0  0  0999 V2000
  -15.5871    4.0370   19.6035 N   0  0  0  0  0  0  0  0  0  0  0  0
  -15.0859    5.3221   19.1255 C   0  0  0  0  0  0  0  0  0  0  0  0
  -15.9187    5.8664   17.9881 C   0  0  0  0  0  0  0  0  0  0  0  0
  -17.1011    6.5546   18.3235 C   0  0  0  0  0  0  0  0  0  0  0  0
  -17.8596    7.1332   17.3226 C   0  0  0  0  0  0  0  0  0  0  0  0
  -17.5297    7.0805   16.0223 N   0  0  0  0  0  0  0  0  0  0  0  0
  -16.3958    6.4011   15.7187 C   0  0  0  0  0  0  0  0  0  0  0  0
  -15.5459    5.7557   16.6303 C   0  0  0  0  0  0  0  0  0  0  0  0
  -14.4088    5.0501   16.2256 N   0  0  0  0  0  0  0  0  0  0  0  0
  -14.4110    3.6000   16.5478 C   0  0  0  0  0  0  0  0  0  0  0  0
  -14.1804    2.7612   15.3029 C   0  0  0  0  0  0  0  0  0  0  0  0
  -13.6861    1.6350   15.3417 O   0  0  0  0  0  0  0  0  0  0  0  0
  -14.6651    3.3669   14.0147 C   0  0  0  0  0  0  0  0  0  0  0  0
  -14.0049    4.7197   13.7814 C   0  0  0  0  0  0  0  0  0  0  0  0
  -13.6251    5.4975   15.0596 C   0  0  0  0  0  0  0  0  0  0  0  0
  -12.1136    5.3671   15.3628 C   0  0  0  0  0  0  0  0  0  0  0  0
  -11.6790    6.2861   16.5106 C   0  0  0  0  0  0  0  0  0  0  0  0
  -10.2263    6.2613   16.7280 N   0  0  0  0  0  0  0  0  0  0  0  0
   -9.8045    5.0458   17.4413 C   0  0  0  0  0  0  0  0  0  0  0  0
   -8.3402    5.1023   17.7299 C   0  0  0  0  0  0  0  0  0  0  0  0
   -7.7483    4.9638   18.8997 N   0  0  0  0  0  0  0  0  0  0  0  0
   -6.4034    5.0956   18.6487 C   0  0  0  0  0  0  0  0  0  0  0  0
   -5.3156    5.0329   19.5314 C   0  0  0  0  0  0  0  0  0  0  0  0
   -4.0234    5.2068   19.0190 C   0  0  0  0  0  0  0  0  0  0  0  0
   -3.8191    5.4392   17.6563 C   0  0  0  0  0  0  0  0  0  0  0  0
   -4.8925    5.5054   16.7599 C   0  0  0  0  0  0  0  0  0  0  0  0
   -6.1686    5.3262   17.2977 C   0  0  0  0  0  0  0  0  0  0  0  0
   -7.4177    5.3273   16.7364 N   0  0  0  0  0  0  0  0  0  0  0  0
  1  2  1  0
  2  3  1  0
  3  4  2  0
  4  5  1  0
  5  6  2  0
  6  7  1  0
  7  8  2  0
  8  9  1  0
  9 10  1  0
 10 11  1  0
 11 12  2  0
 11 13  1  0
 13 14  1  0
 14 15  1  0
 15 16  1  0
 16 17  1  0
 17 18  1  0
 18 19  1  0
 19 20  1  0
 20 21  2  0
 21 22  1  0
 22 23  2  0
 23 24  1  0
 24 25  2  0
 25 26  1  0
 26 27  2  0
 27 28  1  0
  8  3  1  0
 15  9  1  0
 28 20  1  0
 27 22  1  0
M  END
$$$$
