
     RDKit          3D

 23 25  0  0  0  0  0  0  0  0999 V2000
  -30.2273   -1.0144    5.4614 N   0  0  0  0  0  0  0  0  0  0  0  0
  -29.0403   -0.9501    6.1468 C   0  0  0  0  0  0  0  0  0  0  0  0
  -27.9937   -0.7616    5.5398 O   0  0  0  0  0  0  0  0  0  0  0  0
  -29.1329   -1.0651    7.6343 C   0  0  0  0  0  0  0  0  0  0  0  0
  -30.0457   -2.0206    8.1353 C   0  0  0  0  0  0  0  0  0  0  0  0
  -30.1850   -2.2214    9.5053 C   0  0  0  0  0  0  0  0  0  0  0  0
  -29.4096   -1.4730   10.3737 C   0  0  0  0  0  0  0  0  0  0  0  0
  -29.5391   -1.6527   11.6953 F   0  0  0  0  0  0  0  0  0  0  0  0
  -28.4945   -0.5349    9.8990 C   0  0  0  0  0  0  0  0  0  0  0  0
  -28.3205   -0.3033    8.5184 C   0  0  0  0  0  0  0  0  0  0  0  0
  -27.3997    0.6654    8.0654 N   0  0  0  0  0  0  0  0  0  0  0  0
  -27.9925    1.9655    7.7415 C   0  0  0  0  0  0  0  0  0  0  0  0
  -28.6478    1.8624    6.4939 O   0  0  0  0  0  0  0  0  0  0  0  0
  -26.9440    3.0708    7.6025 C   0  0  0  0  0  0  0  0  0  0  0  0
  -26.1023    3.2306    8.8626 C   0  0  0  0  0  0  0  0  0  0  0  0
  -25.9864    1.9139    9.6299 C   0  0  0  0  0  0  0  0  0  0  0  0
  -26.0429    0.6803    8.6838 C   0  0  0  0  0  0  0  0  0  0  0  0
  -24.8838    0.6425    7.7594 N   0  0  0  0  0  0  0  0  0  0  0  0
  -25.0098   -0.4686    6.7947 C   0  0  0  0  0  0  0  0  0  0  0  0
  -23.7772   -1.3705    6.6718 C   0  0  0  0  0  0  0  0  0  0  0  0
  -22.4966   -0.5750    6.4765 C   0  0  0  0  0  0  0  0  0  0  0  0
  -22.4547    0.6723    7.3576 C   0  0  0  0  0  0  0  0  0  0  0  0
  -23.5713    0.6986    8.4035 C   0  0  0  0  0  0  0  0  0  0  0  0
  1  2  1  0
  2  3  2  0
  2  4  1  0
  4  5  2  0
  5  6  1  0
  6  7  2  0
  7  8  1  0
  7  9  1  0
  9 10  2  0
 10 11  1  0
 11 12  1  0
 12 13  1  0
 12 14  1  0
 14 15  1  0
 15 16  1  0
 16 17  1  0
 17 18  1  0
 18 19  1  0
 19 20  1  0
 20 21  1  0
 21 22  1  0
 22 23  1  0
 10  4  1  0
 17 11  1  0
 23 18  1  0
M  END
$$$$
