
     RDKit          3D

 28 31  0  0  0  0  0  0  0  0999 V2000
  -23.8539   -0.9359   10.9852 N   0  0  0  0  0  0  0  0  0  0  0  0
  -24.3658    0.6450   10.6390 S   0  0  0  0  0  0  0  0  0  0  0  0
  -23.1529    1.4301   10.7681 O   0  0  0  0  0  0  0  0  0  0  0  0
  -25.5325    0.8505   11.4730 O   0  0  0  0  0  0  0  0  0  0  0  0
  -24.9159    0.5391    8.9527 C   0  0  0  0  0  0  0  0  0  0  0  0
  -25.6019   -0.6340    8.5837 C   0  0  0  0  0  0  0  0  0  0  0  0
  -26.0028   -0.7770    7.2676 C   0  0  0  0  0  0  0  0  0  0  0  0
  -25.7836    0.1578    6.3210 N   0  0  0  0  0  0  0  0  0  0  0  0
  -25.1381    1.2870    6.7171 C   0  0  0  0  0  0  0  0  0  0  0  0
  -24.6629    1.5546    8.0120 C   0  0  0  0  0  0  0  0  0  0  0  0
  -24.0144    2.7514    8.3223 N   0  0  0  0  0  0  0  0  0  0  0  0
  -24.8576    3.7547    8.9939 C   0  0  0  0  0  0  0  0  0  0  0  0
  -24.0221    4.9729    9.3725 C   0  0  0  0  0  0  0  0  0  0  0  0
  -23.4221    5.6422    8.1357 C   0  0  0  0  0  0  0  0  0  0  0  0
  -23.2309    4.6668    6.9712 C   0  0  0  0  0  0  0  0  0  0  0  0
  -22.9453    3.2348    7.4359 C   0  0  0  0  0  0  0  0  0  0  0  0
  -21.7118    3.2303    8.1528 O   0  0  0  0  0  0  0  0  0  0  0  0
  -21.1270    1.9387    8.1579 C   0  0  0  0  0  0  0  0  0  0  0  0
  -20.0734    1.9203    9.1583 N   0  0  0  0  0  0  0  0  0  0  0  0
  -19.3832    0.7683    9.3119 C   0  0  0  0  0  0  0  0  0  0  0  0
  -19.2570    0.0452   10.3988 N   0  0  0  0  0  0  0  0  0  0  0  0
  -18.4581   -1.0170   10.0436 C   0  0  0  0  0  0  0  0  0  0  0  0
  -18.0186   -2.1089   10.8097 C   0  0  0  0  0  0  0  0  0  0  0  0
  -17.1935   -3.0685   10.2024 C   0  0  0  0  0  0  0  0  0  0  0  0
  -16.8167   -2.9445    8.8631 C   0  0  0  0  0  0  0  0  0  0  0  0
  -17.2512   -1.8628    8.0805 C   0  0  0  0  0  0  0  0  0  0  0  0
  -18.0692   -0.9227    8.7119 C   0  0  0  0  0  0  0  0  0  0  0  0
  -18.6518    0.2424    8.2785 N   0  0  0  0  0  0  0  0  0  0  0  0
  1  2  1  0
  2  3  2  0
  2  4  2  0
  2  5  1  0
  5  6  2  0
  6  7  1  0
  7  8  2  0
  8  9  1  0
  9 10  2  0
 10 11  1  0
 11 12  1  0
 12 13  1  0
 13 14  1  0
 14 15  1  0
 15 16  1  0
 16 17  1  0
 17 18  1  0
 18 19  1  0
 19 20  1  0
 20 21  2  0
 21 22  1  0
 22 23  2  0
 23 24  1  0
 24 25  2  0
 25 26  1  0
 26 27  2  0
 27 28  1  0
 10  5  1  0
 16 11  1  0
 28 20  1  0
 27 22  1  0
M  END
$$$$
