
     RDKit          3D

 29 32  0  0  0  0  0  0  0  0999 V2000
    2.7538   27.4500   -2.0774 N   0  0  0  0  0  0  0  0  0  0  0  0
    4.0894   27.8890   -2.4705 C   0  0  0  0  0  0  0  0  0  0  0  0
    4.7256   28.7587   -1.4129 C   0  0  0  0  0  0  0  0  0  0  0  0
    4.3008   30.0946   -1.2998 C   0  0  0  0  0  0  0  0  0  0  0  0
    4.8787   30.9113   -0.3436 C   0  0  0  0  0  0  0  0  0  0  0  0
    5.8371   30.4999    0.5048 N   0  0  0  0  0  0  0  0  0  0  0  0
    6.2272   29.2055    0.3865 C   0  0  0  0  0  0  0  0  0  0  0  0
    5.7309   28.2839   -0.5455 C   0  0  0  0  0  0  0  0  0  0  0  0
    6.1655   26.9485   -0.6222 N   0  0  0  0  0  0  0  0  0  0  0  0
    5.3461   26.0563    0.2212 C   0  0  0  0  0  0  0  0  0  0  0  0
    5.6303   24.5970   -0.1140 C   0  0  0  0  0  0  0  0  0  0  0  0
    4.7635   23.7248   -0.0209 O   0  0  0  0  0  0  0  0  0  0  0  0
    7.0681   24.2149   -0.3980 C   0  0  0  0  0  0  0  0  0  0  0  0
    7.7944   25.2941   -1.1939 C   0  0  0  0  0  0  0  0  0  0  0  0
    7.6134   26.7060   -0.5830 C   0  0  0  0  0  0  0  0  0  0  0  0
    8.3244   26.8212    0.6951 N   0  0  0  0  0  0  0  0  0  0  0  0
    9.7538   27.1196    0.5569 C   0  0  0  0  0  0  0  0  0  0  0  0
   10.0145   28.5975    0.2394 C   0  0  0  0  0  0  0  0  0  0  0  0
   11.5090   28.9258    0.2292 C   0  0  0  0  0  0  0  0  0  0  0  0
   12.1691   28.2310   -0.8676 N   0  0  0  0  0  0  0  0  0  0  0  0
   13.5095   28.3003   -1.0214 C   0  0  0  0  0  0  0  0  0  0  0  0
   14.1475   28.3748   -2.1634 N   0  0  0  0  0  0  0  0  0  0  0  0
   15.4825   28.3955   -1.8388 C   0  0  0  0  0  0  0  0  0  0  0  0
   16.6090   28.4742   -2.6707 C   0  0  0  0  0  0  0  0  0  0  0  0
   17.8802   28.4730   -2.0815 C   0  0  0  0  0  0  0  0  0  0  0  0
   18.0264   28.3935   -0.6937 C   0  0  0  0  0  0  0  0  0  0  0  0
   16.9140   28.3130    0.1528 C   0  0  0  0  0  0  0  0  0  0  0  0
   15.6603   28.3184   -0.4620 C   0  0  0  0  0  0  0  0  0  0  0  0
   14.3833   28.2486    0.0323 N   0  0  0  0  0  0  0  0  0  0  0  0
  1  2  1  0
  2  3  1  0
  3  4  2  0
  4  5  1  0
  5  6  2  0
  6  7  1  0
  7  8  2  0
  8  9  1  0
  9 10  1  0
 10 11  1  0
 11 12  2  0
 11 13  1  0
 13 14  1  0
 14 15  1  0
 15 16  1  0
 16 17  1  0
 17 18  1  0
 18 19  1  0
 19 20  1  0
 20 21  1  0
 21 22  2  0
 22 23  1  0
 23 24  2  0
 24 25  1  0
 25 26  2  0
 26 27  1  0
 27 28  2  0
 28 29  1  0
  8  3  1  0
 15  9  1  0
 29 21  1  0
 28 23  1  0
M  END
$$$$
