
     RDKit          3D

 23 24  0  0  0  0  0  0  0  0999 V2000
  -23.1744   -4.1550   -8.9257 N   0  0  0  0  0  0  0  0  0  0  0  0
  -22.8428   -5.4130   -9.5832 C   0  0  0  0  0  0  0  0  0  0  0  0
  -21.3557   -5.6552   -9.5802 C   0  0  0  0  0  0  0  0  0  0  0  0
  -20.5527   -5.1767  -10.6241 C   0  0  0  0  0  0  0  0  0  0  0  0
  -19.1675   -5.3783  -10.6126 C   0  0  0  0  0  0  0  0  0  0  0  0
  -18.5668   -6.0555   -9.5518 C   0  0  0  0  0  0  0  0  0  0  0  0
  -17.2317   -6.3174   -9.4157 O   0  0  0  0  0  0  0  0  0  0  0  0
  -16.3791   -5.8654  -10.4605 C   0  0  0  0  0  0  0  0  0  0  0  0
  -14.9510   -6.2333  -10.0990 C   0  0  0  0  0  0  0  0  0  0  0  0
  -14.2329   -6.8620  -10.8820 O   0  0  0  0  0  0  0  0  0  0  0  0
  -14.4653   -5.7725   -8.7337 C   0  0  0  0  0  0  0  0  0  0  0  0
  -12.9620   -5.6142   -8.6270 C   0  0  0  0  0  0  0  0  0  0  0  0
  -12.2722   -6.3711   -7.6601 C   0  0  0  0  0  0  0  0  0  0  0  0
  -10.8885   -6.2580   -7.5197 C   0  0  0  0  0  0  0  0  0  0  0  0
  -10.0710   -7.1943   -6.3303 Cl  0  0  0  0  0  0  0  0  0  0  0  0
  -10.1656   -5.3884   -8.3298 C   0  0  0  0  0  0  0  0  0  0  0  0
  -10.8308   -4.6272   -9.2926 C   0  0  0  0  0  0  0  0  0  0  0  0
  -12.2234   -4.7372   -9.4517 C   0  0  0  0  0  0  0  0  0  0  0  0
  -12.8916   -3.8978  -10.4874 C   0  0  0  0  0  0  0  0  0  0  0  0
  -12.2117   -3.7205  -11.6609 N   0  0  0  0  0  0  0  0  0  0  0  0
  -14.0071   -3.4215  -10.3246 O   0  0  0  0  0  0  0  0  0  0  0  0
  -19.3626   -6.5262   -8.5051 C   0  0  0  0  0  0  0  0  0  0  0  0
  -20.7451   -6.3265   -8.5144 C   0  0  0  0  0  0  0  0  0  0  0  0
  1  2  1  0
  2  3  1  0
  3  4  2  0
  4  5  1  0
  5  6  2  0
  6  7  1  0
  7  8  1  0
  8  9  1  0
  9 10  2  0
  9 11  1  0
 11 12  1  0
 12 13  2  0
 13 14  1  0
 14 15  1  0
 14 16  2  0
 16 17  1  0
 17 18  2  0
 18 19  1  0
 19 20  1  0
 19 21  2  0
  6 22  1  0
 22 23  2  0
 23  3  1  0
 18 12  1  0
M  END
$$$$
