
     RDKit          3D

 29 32  0  0  0  0  0  0  0  0999 V2000
   25.9141   -6.1473  -41.6153 N   0  0  0  0  0  0  0  0  0  0  0  0
   25.6132   -6.2298  -43.0464 C   0  0  0  0  0  0  0  0  0  0  0  0
   25.6280   -4.8658  -43.7046 C   0  0  0  0  0  0  0  0  0  0  0  0
   24.5636   -3.9852  -43.4048 C   0  0  0  0  0  0  0  0  0  0  0  0
   24.4710   -2.7324  -44.0048 C   0  0  0  0  0  0  0  0  0  0  0  0
   25.4474   -2.3519  -44.9170 C   0  0  0  0  0  0  0  0  0  0  0  0
   25.3582   -0.7739  -45.7138 S   0  0  0  0  0  0  0  0  0  0  0  0
   26.5516    0.0898  -44.8991 N   0  0  0  0  0  0  0  0  0  0  0  0
   24.1113   -0.1417  -45.3476 O   0  0  0  0  0  0  0  0  0  0  0  0
   25.7764   -0.9343  -47.0853 O   0  0  0  0  0  0  0  0  0  0  0  0
   26.5024   -3.2118  -45.2384 C   0  0  0  0  0  0  0  0  0  0  0  0
   26.6220   -4.4767  -44.6339 C   0  0  0  0  0  0  0  0  0  0  0  0
   27.6994   -5.3115  -44.9463 N   0  0  0  0  0  0  0  0  0  0  0  0
   28.1252   -5.3667  -46.3500 C   0  0  0  0  0  0  0  0  0  0  0  0
   28.7075   -6.7511  -46.6412 C   0  0  0  0  0  0  0  0  0  0  0  0
   29.5486   -7.3025  -45.4893 C   0  0  0  0  0  0  0  0  0  0  0  0
   30.0009   -6.1923  -44.5492 C   0  0  0  0  0  0  0  0  0  0  0  0
   28.7959   -5.4418  -43.9339 C   0  0  0  0  0  0  0  0  0  0  0  0
   29.2419   -4.0864  -43.3176 C   0  0  0  0  0  0  0  0  0  0  0  0
   30.1830   -4.2530  -42.2099 N   0  0  0  0  0  0  0  0  0  0  0  0
   31.4974   -4.0623  -42.4224 C   0  0  0  0  0  0  0  0  0  0  0  0
   32.1005   -3.6242  -43.5008 N   0  0  0  0  0  0  0  0  0  0  0  0
   33.4410   -3.6255  -43.2017 C   0  0  0  0  0  0  0  0  0  0  0  0
   34.5385   -3.2557  -43.9921 C   0  0  0  0  0  0  0  0  0  0  0  0
   35.8236   -3.3510  -43.4426 C   0  0  0  0  0  0  0  0  0  0  0  0
   36.0113   -3.8042  -42.1339 C   0  0  0  0  0  0  0  0  0  0  0  0
   34.9278   -4.1777  -41.3297 C   0  0  0  0  0  0  0  0  0  0  0  0
   33.6597   -4.0734  -41.9042 C   0  0  0  0  0  0  0  0  0  0  0  0
   32.4013   -4.3414  -41.4315 N   0  0  0  0  0  0  0  0  0  0  0  0
  1  2  1  0
  2  3  1  0
  3  4  2  0
  4  5  1  0
  5  6  2  0
  6  7  1  0
  7  8  1  0
  7  9  2  0
  7 10  2  0
  6 11  1  0
 11 12  2  0
 12 13  1  0
 13 14  1  0
 14 15  1  0
 15 16  1  0
 16 17  1  0
 17 18  1  0
 18 19  1  0
 19 20  1  0
 20 21  1  0
 21 22  2  0
 22 23  1  0
 23 24  2  0
 24 25  1  0
 25 26  2  0
 26 27  1  0
 27 28  2  0
 28 29  1  0
 12  3  1  0
 18 13  1  0
 29 21  1  0
 28 23  1  0
M  END
$$$$
