
     RDKit          3D

 19 20  0  0  0  0  0  0  0  0999 V2000
  -11.1126  -23.9736    6.5484 N   0  0  0  0  0  0  0  0  0  0  0  0
  -11.7519  -22.6587    6.5368 C   0  0  0  0  0  0  0  0  0  0  0  0
  -12.4019  -22.3117    7.8689 C   0  0  0  0  0  0  0  0  0  0  0  0
  -13.7311  -23.0130    8.0618 C   0  0  0  0  0  0  0  0  0  0  0  0
  -13.8890  -23.8300    8.9723 O   0  0  0  0  0  0  0  0  0  0  0  0
  -14.8444  -22.6838    7.0816 C   0  0  0  0  0  0  0  0  0  0  0  0
  -16.2218  -22.8784    7.7009 C   0  0  0  0  0  0  0  0  0  0  0  0
  -16.4915  -21.8819    8.8149 C   0  0  0  0  0  0  0  0  0  0  0  0
  -15.7580  -20.9087    9.0029 O   0  0  0  0  0  0  0  0  0  0  0  0
  -17.7254  -22.1268    9.6633 C   0  0  0  0  0  0  0  0  0  0  0  0
  -18.9757  -21.8431    8.9017 C   0  0  0  0  0  0  0  0  0  0  0  0
  -19.5152  -20.5960    8.6600 C   0  0  0  0  0  0  0  0  0  0  0  0
  -20.6548  -20.7552    7.9205 N   0  0  0  0  0  0  0  0  0  0  0  0
  -20.8683  -22.0837    7.6573 C   0  0  0  0  0  0  0  0  0  0  0  0
  -21.8935  -22.7023    6.9321 C   0  0  0  0  0  0  0  0  0  0  0  0
  -21.8590  -24.0979    6.8172 C   0  0  0  0  0  0  0  0  0  0  0  0
  -20.8389  -24.8382    7.4061 C   0  0  0  0  0  0  0  0  0  0  0  0
  -19.8243  -24.2037    8.1331 C   0  0  0  0  0  0  0  0  0  0  0  0
  -19.8347  -22.7962    8.2633 C   0  0  0  0  0  0  0  0  0  0  0  0
  1  2  1  0
  2  3  1  0
  3  4  1  0
  4  5  2  0
  4  6  1  0
  6  7  1  0
  7  8  1  0
  8  9  2  0
  8 10  1  0
 10 11  1  0
 11 12  2  0
 12 13  1  0
 13 14  1  0
 14 15  2  0
 15 16  1  0
 16 17  2  0
 17 18  1  0
 18 19  2  0
 19 11  1  0
 19 14  1  0
M  END
$$$$
