
     RDKit          3D

 19 20  0  0  0  0  0  0  0  0999 V2000
   -9.5629   25.7438    4.4396 C   0  0  0  0  0  0  0  0  0  0  0  0
   -8.8425   25.7504    3.1723 N   0  0  0  0  0  0  0  0  0  0  0  0
   -7.4742   25.2058    3.3076 C   0  0  0  0  0  0  0  0  0  0  0  0
   -7.4390   23.6593    3.4404 C   0  0  0  0  0  0  0  0  0  0  0  0
   -5.9984   23.1346    3.4450 C   0  0  0  0  0  0  0  0  0  0  0  0
   -5.3756   23.2056    4.8275 C   0  0  0  0  0  0  0  0  0  0  0  0
   -5.7520   24.0293    5.6694 O   0  0  0  0  0  0  0  0  0  0  0  0
   -4.2997   22.1882    5.1605 C   0  0  0  0  0  0  0  0  0  0  0  0
   -3.1815   22.1804    4.1713 C   0  0  0  0  0  0  0  0  0  0  0  0
   -2.8817   21.1674    3.2799 C   0  0  0  0  0  0  0  0  0  0  0  0
   -1.7615   21.5313    2.5790 N   0  0  0  0  0  0  0  0  0  0  0  0
   -1.3416   22.7804    2.9658 C   0  0  0  0  0  0  0  0  0  0  0  0
   -0.2628   23.5500    2.5133 C   0  0  0  0  0  0  0  0  0  0  0  0
   -0.0623   24.7980    3.1099 C   0  0  0  0  0  0  0  0  0  0  0  0
   -0.9057   25.2543    4.1200 C   0  0  0  0  0  0  0  0  0  0  0  0
   -1.9810   24.4720    4.5600 C   0  0  0  0  0  0  0  0  0  0  0  0
   -2.2073   23.2103    3.9718 C   0  0  0  0  0  0  0  0  0  0  0  0
   -8.1402   23.1143    2.3004 O   0  0  0  0  0  0  0  0  0  0  0  0
   -8.7602   21.8620    2.5721 C   0  0  0  0  0  0  0  0  0  0  0  0
  1  2  1  0
  2  3  1  0
  3  4  1  0
  4  5  1  0
  5  6  1  0
  6  7  2  0
  6  8  1  0
  8  9  1  0
  9 10  2  0
 10 11  1  0
 11 12  1  0
 12 13  2  0
 13 14  1  0
 14 15  2  0
 15 16  1  0
 16 17  2  0
  4 18  1  0
 18 19  1  0
 17  9  1  0
 17 12  1  0
M  END
$$$$
