
     RDKit          3D

 26 28  0  0  0  0  0  0  0  0999 V2000
   -3.9943  -14.0179   33.4188 C   0  0  0  0  0  0  0  0  0  0  0  0
   -3.4473  -13.0137   32.5441 N   0  0  0  0  0  0  0  0  0  0  0  0
   -2.4767  -12.1412   32.9811 C   0  0  0  0  0  0  0  0  0  0  0  0
   -1.9571  -12.2065   34.0848 O   0  0  0  0  0  0  0  0  0  0  0  0
   -2.0793  -11.1128   31.9433 C   0  0  0  0  0  0  0  0  0  0  0  0
   -2.7786   -9.7860   32.1300 C   0  0  0  0  0  0  0  0  0  0  0  0
   -2.1712   -8.8447   32.9793 C   0  0  0  0  0  0  0  0  0  0  0  0
   -2.7533   -7.5985   33.2115 C   0  0  0  0  0  0  0  0  0  0  0  0
   -3.9540   -7.2716   32.5946 C   0  0  0  0  0  0  0  0  0  0  0  0
   -4.6263   -6.0874   32.7211 O   0  0  0  0  0  0  0  0  0  0  0  0
   -4.0086   -5.0848   33.5184 C   0  0  0  0  0  0  0  0  0  0  0  0
   -4.5732   -8.2083   31.7614 C   0  0  0  0  0  0  0  0  0  0  0  0
   -4.0188   -9.4801   31.5248 C   0  0  0  0  0  0  0  0  0  0  0  0
   -4.6381  -10.4259   30.6586 N   0  0  0  0  0  0  0  0  0  0  0  0
   -4.1538  -10.1611   29.2762 C   0  0  0  0  0  0  0  0  0  0  0  0
   -4.6696  -11.1909   28.2778 C   0  0  0  0  0  0  0  0  0  0  0  0
   -4.1164  -11.3459   27.1731 O   0  0  0  0  0  0  0  0  0  0  0  0
   -5.9970  -11.8727   28.5547 C   0  0  0  0  0  0  0  0  0  0  0  0
   -6.4667  -11.8360   30.0071 C   0  0  0  0  0  0  0  0  0  0  0  0
   -6.1268  -10.4934   30.6980 C   0  0  0  0  0  0  0  0  0  0  0  0
   -6.8719  -10.3226   31.9460 N   0  0  0  0  0  0  0  0  0  0  0  0
   -8.2696   -9.9460   31.7983 C   0  0  0  0  0  0  0  0  0  0  0  0
   -8.8069   -9.4410   33.1362 C   0  0  0  0  0  0  0  0  0  0  0  0
   -8.6364  -10.4572   34.2657 C   0  0  0  0  0  0  0  0  0  0  0  0
   -7.8011  -11.6607   33.8456 C   0  0  0  0  0  0  0  0  0  0  0  0
   -6.5728  -11.2570   33.0267 C   0  0  0  0  0  0  0  0  0  0  0  0
  1  2  1  0
  2  3  1  0
  3  4  2  0
  3  5  1  0
  5  6  1  0
  6  7  2  0
  7  8  1  0
  8  9  2  0
  9 10  1  0
 10 11  1  0
  9 12  1  0
 12 13  2  0
 13 14  1  0
 14 15  1  0
 15 16  1  0
 16 17  2  0
 16 18  1  0
 18 19  1  0
 19 20  1  0
 20 21  1  0
 21 22  1  0
 22 23  1  0
 23 24  1  0
 24 25  1  0
 25 26  1  0
 13  6  1  0
 20 14  1  0
 26 21  1  0
M  END
$$$$
