
     RDKit          3D

 15 16  0  0  0  0  0  0  0  0999 V2000
   16.5940    9.7687  -11.7417 N   0  0  0  0  0  0  0  0  0  0  0  0
   15.4592    9.4110  -12.5844 C   0  0  0  0  0  0  0  0  0  0  0  0
   15.5309    7.9437  -13.0070 C   0  0  0  0  0  0  0  0  0  0  0  0
   14.3934    7.5502  -13.9474 C   0  0  0  0  0  0  0  0  0  0  0  0
   13.0595    7.4860  -13.2219 C   0  0  0  0  0  0  0  0  0  0  0  0
   12.8608    6.5665  -12.4250 O   0  0  0  0  0  0  0  0  0  0  0  0
   12.0463    8.5203  -13.4617 C   0  0  0  0  0  0  0  0  0  0  0  0
   12.1747    9.6383  -14.2694 C   0  0  0  0  0  0  0  0  0  0  0  0
   11.0079   10.3548  -14.2152 N   0  0  0  0  0  0  0  0  0  0  0  0
   10.1058    9.7330  -13.3878 C   0  0  0  0  0  0  0  0  0  0  0  0
    8.8010   10.1040  -13.0397 C   0  0  0  0  0  0  0  0  0  0  0  0
    8.1020    9.2723  -12.1610 C   0  0  0  0  0  0  0  0  0  0  0  0
    8.6871    8.1167  -11.6520 C   0  0  0  0  0  0  0  0  0  0  0  0
    9.9926    7.7620  -12.0111 C   0  0  0  0  0  0  0  0  0  0  0  0
   10.7246    8.5819  -12.8976 C   0  0  0  0  0  0  0  0  0  0  0  0
  1  2  1  0
  2  3  1  0
  3  4  1  0
  4  5  1  0
  5  6  2  0
  5  7  1  0
  7  8  2  0
  8  9  1  0
  9 10  1  0
 10 11  2  0
 11 12  1  0
 12 13  2  0
 13 14  1  0
 14 15  2  0
 15  7  1  0
 15 10  1  0
M  END
$$$$
