
     RDKit          3D

 30 32  0  0  0  0  0  0  0  0999 V2000
  -48.2781    6.8275   17.8468 C   0  0  0  0  0  0  0  0  0  0  0  0
  -48.3345    6.4955   19.2295 O   0  0  0  0  0  0  0  0  0  0  0  0
  -47.6379    5.3849   19.6283 C   0  0  0  0  0  0  0  0  0  0  0  0
  -47.1839    4.3842   18.7660 C   0  0  0  0  0  0  0  0  0  0  0  0
  -46.5228    3.2603   19.2702 C   0  0  0  0  0  0  0  0  0  0  0  0
  -46.3077    3.1164   20.6444 C   0  0  0  0  0  0  0  0  0  0  0  0
  -45.6041    1.9028   21.1954 C   0  0  0  0  0  0  0  0  0  0  0  0
  -46.5208    1.0509   21.9403 N   0  0  0  0  0  0  0  0  0  0  0  0
  -46.7730    4.1176   21.5072 C   0  0  0  0  0  0  0  0  0  0  0  0
  -47.4296    5.2567   21.0120 C   0  0  0  0  0  0  0  0  0  0  0  0
  -47.9193    6.3044   21.9878 C   0  0  0  0  0  0  0  0  0  0  0  0
  -49.2652    5.9747   22.6120 C   0  0  0  0  0  0  0  0  0  0  0  0
  -49.3712    5.8398   23.8288 O   0  0  0  0  0  0  0  0  0  0  0  0
  -50.2890    5.8944   21.6927 N   0  0  0  0  0  0  0  0  0  0  0  0
  -51.6633    5.6642   21.9154 C   0  0  0  0  0  0  0  0  0  0  0  0
  -52.2293    5.5857   23.1917 C   0  0  0  0  0  0  0  0  0  0  0  0
  -53.6061    5.4233   23.3413 C   0  0  0  0  0  0  0  0  0  0  0  0
  -54.4138    5.3486   22.2081 C   0  0  0  0  0  0  0  0  0  0  0  0
  -56.1561    5.1236   22.3869 S   0  0  0  0  0  0  0  0  0  0  0  0
  -56.7215    6.6993   22.2652 N   0  0  0  0  0  0  0  0  0  0  0  0
  -56.4542    4.7016   23.7353 O   0  0  0  0  0  0  0  0  0  0  0  0
  -56.6661    4.4284   21.2268 O   0  0  0  0  0  0  0  0  0  0  0  0
  -53.8593    5.4024   20.9245 C   0  0  0  0  0  0  0  0  0  0  0  0
  -52.4789    5.5539   20.7542 C   0  0  0  0  0  0  0  0  0  0  0  0
  -51.8702    5.5659   19.4860 N   0  0  0  0  0  0  0  0  0  0  0  0
  -51.3026    4.2715   19.0736 C   0  0  0  0  0  0  0  0  0  0  0  0
  -52.2867    3.4811   18.2168 C   0  0  0  0  0  0  0  0  0  0  0  0
  -52.7412    4.3074   17.0184 C   0  0  0  0  0  0  0  0  0  0  0  0
  -53.3601    5.6236   17.4747 C   0  0  0  0  0  0  0  0  0  0  0  0
  -52.4458    6.3973   18.4229 C   0  0  0  0  0  0  0  0  0  0  0  0
  1  2  1  0
  2  3  1  0
  3  4  2  0
  4  5  1  0
  5  6  2  0
  6  7  1  0
  7  8  1  0
  6  9  1  0
  9 10  2  0
 10 11  1  0
 11 12  1  0
 12 13  2  0
 12 14  1  0
 14 15  1  0
 15 16  2  0
 16 17  1  0
 17 18  2  0
 18 19  1  0
 19 20  1  0
 19 21  2  0
 19 22  2  0
 18 23  1  0
 23 24  2  0
 24 25  1  0
 25 26  1  0
 26 27  1  0
 27 28  1  0
 28 29  1  0
 29 30  1  0
 10  3  1  0
 24 15  1  0
 30 25  1  0
M  END
$$$$
