
     RDKit          3D

 16 17  0  0  0  0  0  0  0  0999 V2000
  -13.4822   -0.6632   12.0362 N   0  0  0  0  0  0  0  0  0  0  0  0
  -12.9207   -1.7540   12.8214 C   0  0  0  0  0  0  0  0  0  0  0  0
  -14.0170   -2.4417   13.6318 C   0  0  0  0  0  0  0  0  0  0  0  0
  -13.4345   -3.5238   14.5319 C   0  0  0  0  0  0  0  0  0  0  0  0
  -14.5020   -4.4123   15.1401 C   0  0  0  0  0  0  0  0  0  0  0  0
  -14.5507   -5.6120   14.8530 O   0  0  0  0  0  0  0  0  0  0  0  0
  -15.4777   -3.7880   16.1208 C   0  0  0  0  0  0  0  0  0  0  0  0
  -16.7835   -3.4446   15.4828 C   0  0  0  0  0  0  0  0  0  0  0  0
  -17.6504   -4.3306   14.8707 C   0  0  0  0  0  0  0  0  0  0  0  0
  -18.7353   -3.6342   14.4161 N   0  0  0  0  0  0  0  0  0  0  0  0
  -18.6078   -2.3015   14.7274 C   0  0  0  0  0  0  0  0  0  0  0  0
  -19.4701   -1.2301   14.4646 C   0  0  0  0  0  0  0  0  0  0  0  0
  -19.0821    0.0379   14.9054 C   0  0  0  0  0  0  0  0  0  0  0  0
  -17.8804    0.2234   15.5831 C   0  0  0  0  0  0  0  0  0  0  0  0
  -17.0307   -0.8594   15.8387 C   0  0  0  0  0  0  0  0  0  0  0  0
  -17.3953   -2.1505   15.4021 C   0  0  0  0  0  0  0  0  0  0  0  0
  1  2  1  0
  2  3  1  0
  3  4  1  0
  4  5  1  0
  5  6  2  0
  5  7  1  0
  7  8  1  0
  8  9  2  0
  9 10  1  0
 10 11  1  0
 11 12  2  0
 12 13  1  0
 13 14  2  0
 14 15  1  0
 15 16  2  0
 16  8  1  0
 16 11  1  0
M  END
$$$$
