
     RDKit          3D

 17 18  0  0  0  0  0  0  0  0999 V2000
  -29.3402   -1.5302   27.2377 N   0  0  0  0  0  0  0  0  0  0  0  0
  -28.9417   -1.6038   25.8273 C   0  0  0  0  0  0  0  0  0  0  0  0
  -27.9136   -2.6981   25.5506 C   0  0  0  0  0  0  0  0  0  0  0  0
  -27.1090   -2.5851   24.6258 O   0  0  0  0  0  0  0  0  0  0  0  0
  -27.9590   -3.9609   26.3363 C   0  0  0  0  0  0  0  0  0  0  0  0
  -29.1964   -4.6348   26.3786 C   0  0  0  0  0  0  0  0  0  0  0  0
  -29.3133   -5.8574   27.0358 C   0  0  0  0  0  0  0  0  0  0  0  0
  -28.1945   -6.4095   27.6380 C   0  0  0  0  0  0  0  0  0  0  0  0
  -28.2981   -7.5877   28.2668 F   0  0  0  0  0  0  0  0  0  0  0  0
  -26.9661   -5.7581   27.5985 C   0  0  0  0  0  0  0  0  0  0  0  0
  -26.8156   -4.5145   26.9551 C   0  0  0  0  0  0  0  0  0  0  0  0
  -25.5342   -3.9541   26.9948 N   0  0  0  0  0  0  0  0  0  0  0  0
  -25.3675   -2.5964   27.5233 C   0  0  0  0  0  0  0  0  0  0  0  0
  -24.4725   -1.7371   26.6346 C   0  0  0  0  0  0  0  0  0  0  0  0
  -23.1281   -2.4034   26.3480 C   0  0  0  0  0  0  0  0  0  0  0  0
  -23.2339   -3.9197   26.1802 C   0  0  0  0  0  0  0  0  0  0  0  0
  -24.6623   -4.3713   25.8886 C   0  0  0  0  0  0  0  0  0  0  0  0
  1  2  1  0
  2  3  1  0
  3  4  2  0
  3  5  1  0
  5  6  2  0
  6  7  1  0
  7  8  2  0
  8  9  1  0
  8 10  1  0
 10 11  2  0
 11 12  1  0
 12 13  1  0
 13 14  1  0
 14 15  1  0
 15 16  1  0
 16 17  1  0
 11  5  1  0
 17 12  1  0
M  END
$$$$
