
     RDKit          3D

 19 20  0  0  0  0  0  0  0  0999 V2000
   14.7371   -3.8050    0.5220 N   0  0  0  0  0  0  0  0  0  0  0  0
   15.2441   -4.3227   -0.7435 C   0  0  0  0  0  0  0  0  0  0  0  0
   15.2741   -3.2438   -1.8157 C   0  0  0  0  0  0  0  0  0  0  0  0
   13.8821   -2.8633   -2.2759 C   0  0  0  0  0  0  0  0  0  0  0  0
   13.1253   -3.6835   -2.7996 O   0  0  0  0  0  0  0  0  0  0  0  0
   13.4534   -1.4363   -2.0861 C   0  0  0  0  0  0  0  0  0  0  0  0
   13.0177   -1.1292   -0.6803 C   0  0  0  0  0  0  0  0  0  0  0  0
   13.8112   -0.6531    0.1347 O   0  0  0  0  0  0  0  0  0  0  0  0
   11.5875   -1.4451   -0.3036 C   0  0  0  0  0  0  0  0  0  0  0  0
   11.4954   -2.7509    0.4715 C   0  0  0  0  0  0  0  0  0  0  0  0
   10.0752   -3.1374    0.7362 C   0  0  0  0  0  0  0  0  0  0  0  0
    9.3285   -2.8175    1.8529 C   0  0  0  0  0  0  0  0  0  0  0  0
    8.0782   -3.3538    1.7013 N   0  0  0  0  0  0  0  0  0  0  0  0
    7.9865   -4.0188    0.5010 C   0  0  0  0  0  0  0  0  0  0  0  0
    6.9096   -4.7078   -0.0699 C   0  0  0  0  0  0  0  0  0  0  0  0
    7.1088   -5.2981   -1.3215 C   0  0  0  0  0  0  0  0  0  0  0  0
    8.3360   -5.2020   -1.9731 C   0  0  0  0  0  0  0  0  0  0  0  0
    9.4022   -4.5092   -1.3881 C   0  0  0  0  0  0  0  0  0  0  0  0
    9.2270   -3.9042   -0.1263 C   0  0  0  0  0  0  0  0  0  0  0  0
  1  2  1  0
  2  3  1  0
  3  4  1  0
  4  5  2  0
  4  6  1  0
  6  7  1  0
  7  8  2  0
  7  9  1  0
  9 10  1  0
 10 11  1  0
 11 12  2  0
 12 13  1  0
 13 14  1  0
 14 15  2  0
 15 16  1  0
 16 17  2  0
 17 18  1  0
 18 19  2  0
 19 11  1  0
 19 14  1  0
M  END
$$$$
