
     RDKit          3D

 19 20  0  0  0  0  0  0  0  0999 V2000
  -23.9360    3.5181  -53.2349 N   0  0  0  0  0  0  0  0  0  0  0  0
  -24.5753    4.8330  -53.2465 C   0  0  0  0  0  0  0  0  0  0  0  0
  -25.2253    5.1800  -51.9144 C   0  0  0  0  0  0  0  0  0  0  0  0
  -26.5545    4.4786  -51.7215 C   0  0  0  0  0  0  0  0  0  0  0  0
  -26.7125    3.6617  -50.8111 O   0  0  0  0  0  0  0  0  0  0  0  0
  -27.6678    4.8078  -52.7017 C   0  0  0  0  0  0  0  0  0  0  0  0
  -29.0452    4.6133  -52.0824 C   0  0  0  0  0  0  0  0  0  0  0  0
  -29.3149    5.6097  -50.9684 C   0  0  0  0  0  0  0  0  0  0  0  0
  -28.5814    6.5830  -50.7804 O   0  0  0  0  0  0  0  0  0  0  0  0
  -30.5488    5.3649  -50.1200 C   0  0  0  0  0  0  0  0  0  0  0  0
  -31.7991    5.6485  -50.8816 C   0  0  0  0  0  0  0  0  0  0  0  0
  -32.3386    6.8957  -51.1233 C   0  0  0  0  0  0  0  0  0  0  0  0
  -33.4783    6.7364  -51.8628 N   0  0  0  0  0  0  0  0  0  0  0  0
  -33.6917    5.4080  -52.1260 C   0  0  0  0  0  0  0  0  0  0  0  0
  -34.7170    4.7894  -52.8512 C   0  0  0  0  0  0  0  0  0  0  0  0
  -34.6824    3.3938  -52.9662 C   0  0  0  0  0  0  0  0  0  0  0  0
  -33.6624    2.6534  -52.3772 C   0  0  0  0  0  0  0  0  0  0  0  0
  -32.6477    3.2880  -51.6502 C   0  0  0  0  0  0  0  0  0  0  0  0
  -32.6581    4.6954  -51.5200 C   0  0  0  0  0  0  0  0  0  0  0  0
  1  2  1  0
  2  3  1  0
  3  4  1  0
  4  5  2  0
  4  6  1  0
  6  7  1  0
  7  8  1  0
  8  9  2  0
  8 10  1  0
 10 11  1  0
 11 12  2  0
 12 13  1  0
 13 14  1  0
 14 15  2  0
 15 16  1  0
 16 17  2  0
 17 18  1  0
 18 19  2  0
 19 11  1  0
 19 14  1  0
M  END
$$$$
