
     RDKit          3D

 25 27  0  0  0  0  0  0  0  0999 V2000
   11.2109  -15.0403  -11.8923 C   0  0  0  0  0  0  0  0  0  0  0  0
   12.1074  -15.3849  -12.9484 O   0  0  0  0  0  0  0  0  0  0  0  0
   12.5780  -14.2421  -13.5528 C   0  0  0  0  0  0  0  0  0  0  0  0
   13.6548  -13.5755  -12.9643 C   0  0  0  0  0  0  0  0  0  0  0  0
   14.1954  -12.4537  -13.5871 C   0  0  0  0  0  0  0  0  0  0  0  0
   13.6884  -12.0156  -14.8168 C   0  0  0  0  0  0  0  0  0  0  0  0
   14.2853  -10.8133  -15.5007 C   0  0  0  0  0  0  0  0  0  0  0  0
   13.7090   -9.5767  -14.9873 N   0  0  0  0  0  0  0  0  0  0  0  0
   12.6057  -12.7018  -15.3978 C   0  0  0  0  0  0  0  0  0  0  0  0
   12.0231  -13.8180  -14.7779 C   0  0  0  0  0  0  0  0  0  0  0  0
   10.9733  -14.5375  -15.3530 N   0  0  0  0  0  0  0  0  0  0  0  0
   11.4182  -15.4297  -16.4299 C   0  0  0  0  0  0  0  0  0  0  0  0
   10.5957  -16.5976  -16.4830 O   0  0  0  0  0  0  0  0  0  0  0  0
   10.9031  -17.5040  -15.4308 C   0  0  0  0  0  0  0  0  0  0  0  0
   11.2541  -14.7206  -17.7812 C   0  0  0  0  0  0  0  0  0  0  0  0
   12.1473  -14.6492  -18.6272 O   0  0  0  0  0  0  0  0  0  0  0  0
    9.8882  -14.1269  -18.0312 C   0  0  0  0  0  0  0  0  0  0  0  0
    9.4843  -13.2325  -16.8627 C   0  0  0  0  0  0  0  0  0  0  0  0
    9.6224  -13.9547  -15.4936 C   0  0  0  0  0  0  0  0  0  0  0  0
    8.9814  -13.2186  -14.3833 N   0  0  0  0  0  0  0  0  0  0  0  0
    9.5510  -11.9066  -14.0608 C   0  0  0  0  0  0  0  0  0  0  0  0
    8.5873  -10.9788  -13.3040 C   0  0  0  0  0  0  0  0  0  0  0  0
    7.7247  -11.7649  -12.3289 C   0  0  0  0  0  0  0  0  0  0  0  0
    6.9498  -12.8693  -13.0491 C   0  0  0  0  0  0  0  0  0  0  0  0
    7.5216  -13.2089  -14.4315 C   0  0  0  0  0  0  0  0  0  0  0  0
  1  2  1  0
  2  3  1  0
  3  4  2  0
  4  5  1  0
  5  6  2  0
  6  7  1  0
  7  8  1  0
  6  9  1  0
  9 10  2  0
 10 11  1  0
 11 12  1  0
 12 13  1  0
 13 14  1  0
 12 15  1  0
 15 16  2  0
 15 17  1  0
 17 18  1  0
 18 19  1  0
 19 20  1  0
 20 21  1  0
 21 22  1  0
 22 23  1  0
 23 24  1  0
 24 25  1  0
 10  3  1  0
 19 11  1  0
 25 20  1  0
M  END
$$$$
