
     RDKit          3D

 16 17  0  0  0  0  0  0  0  0999 V2000
   -5.9232    7.2195    4.9759 N   0  0  0  0  0  0  0  0  0  0  0  0
   -5.3616    6.1287    5.7610 C   0  0  0  0  0  0  0  0  0  0  0  0
   -6.4580    5.4410    6.5715 C   0  0  0  0  0  0  0  0  0  0  0  0
   -5.8755    4.3589    7.4716 C   0  0  0  0  0  0  0  0  0  0  0  0
   -6.9430    3.4703    8.0797 C   0  0  0  0  0  0  0  0  0  0  0  0
   -6.9917    2.2707    7.7927 O   0  0  0  0  0  0  0  0  0  0  0  0
   -7.9187    4.0946    9.0605 C   0  0  0  0  0  0  0  0  0  0  0  0
   -9.2245    4.4380    8.4225 C   0  0  0  0  0  0  0  0  0  0  0  0
  -10.0914    3.5521    7.8104 C   0  0  0  0  0  0  0  0  0  0  0  0
  -11.1763    4.2485    7.3558 N   0  0  0  0  0  0  0  0  0  0  0  0
  -11.0487    5.5812    7.6671 C   0  0  0  0  0  0  0  0  0  0  0  0
  -11.9110    6.6526    7.4043 C   0  0  0  0  0  0  0  0  0  0  0  0
  -11.5231    7.9206    7.8451 C   0  0  0  0  0  0  0  0  0  0  0  0
  -10.3214    8.1061    8.5228 C   0  0  0  0  0  0  0  0  0  0  0  0
   -9.4717    7.0233    8.7784 C   0  0  0  0  0  0  0  0  0  0  0  0
   -9.8363    5.7322    8.3418 C   0  0  0  0  0  0  0  0  0  0  0  0
  1  2  1  0
  2  3  1  0
  3  4  1  0
  4  5  1  0
  5  6  2  0
  5  7  1  0
  7  8  1  0
  8  9  2  0
  9 10  1  0
 10 11  1  0
 11 12  2  0
 12 13  1  0
 13 14  2  0
 14 15  1  0
 15 16  2  0
 16  8  1  0
 16 11  1  0
M  END
$$$$
