
     RDKit          3D

 24 26  0  0  0  0  0  0  0  0999 V2000
   -9.8020   -4.0159  -17.4720 C   0  0  0  0  0  0  0  0  0  0  0  0
   -8.4007   -3.9492  -17.7048 O   0  0  0  0  0  0  0  0  0  0  0  0
   -7.6249   -4.8697  -17.0550 C   0  0  0  0  0  0  0  0  0  0  0  0
   -8.0812   -5.8860  -16.2222 C   0  0  0  0  0  0  0  0  0  0  0  0
   -7.1716   -6.7649  -15.6266 C   0  0  0  0  0  0  0  0  0  0  0  0
   -5.7891   -6.6489  -15.8524 C   0  0  0  0  0  0  0  0  0  0  0  0
   -4.8623   -7.6399  -15.1786 C   0  0  0  0  0  0  0  0  0  0  0  0
   -4.3448   -7.1546  -13.8375 C   0  0  0  0  0  0  0  0  0  0  0  0
   -2.9885   -7.0514  -13.7272 N   0  0  0  0  0  0  0  0  0  0  0  0
   -5.0686   -6.8837  -12.8835 O   0  0  0  0  0  0  0  0  0  0  0  0
   -5.3191   -5.6027  -16.6741 C   0  0  0  0  0  0  0  0  0  0  0  0
   -3.8499   -5.3870  -16.9539 C   0  0  0  0  0  0  0  0  0  0  0  0
   -3.4148   -6.2065  -18.0894 N   0  0  0  0  0  0  0  0  0  0  0  0
   -1.9550   -6.2519  -18.1663 C   0  0  0  0  0  0  0  0  0  0  0  0
   -1.4086   -7.3135  -17.2656 C   0  0  0  0  0  0  0  0  0  0  0  0
   -0.8379   -7.1603  -16.0846 N   0  0  0  0  0  0  0  0  0  0  0  0
   -0.4608   -8.4255  -15.6936 C   0  0  0  0  0  0  0  0  0  0  0  0
    0.2181   -8.8420  -14.5397 C   0  0  0  0  0  0  0  0  0  0  0  0
    0.4601  -10.2101  -14.3608 C   0  0  0  0  0  0  0  0  0  0  0  0
    0.0329  -11.1426  -15.3097 C   0  0  0  0  0  0  0  0  0  0  0  0
   -0.6464  -10.7448  -16.4672 C   0  0  0  0  0  0  0  0  0  0  0  0
   -0.8706   -9.3755  -16.6209 C   0  0  0  0  0  0  0  0  0  0  0  0
   -1.4871   -8.6445  -17.6014 N   0  0  0  0  0  0  0  0  0  0  0  0
   -6.2521   -4.7362  -17.2758 C   0  0  0  0  0  0  0  0  0  0  0  0
  1  2  1  0
  2  3  1  0
  3  4  2  0
  4  5  1  0
  5  6  2  0
  6  7  1  0
  7  8  1  0
  8  9  1  0
  8 10  2  0
  6 11  1  0
 11 12  1  0
 12 13  1  0
 13 14  1  0
 14 15  1  0
 15 16  2  0
 16 17  1  0
 17 18  2  0
 18 19  1  0
 19 20  2  0
 20 21  1  0
 21 22  2  0
 22 23  1  0
 11 24  2  0
 24  3  1  0
 23 15  1  0
 22 17  1  0
M  END
$$$$
