
     RDKit          3D

 25 27  0  0  0  0  0  0  0  0999 V2000
   -3.4831   12.5768   -4.3741 C   0  0  0  0  0  0  0  0  0  0  0  0
   -4.1382   12.0151   -3.2022 N   0  0  0  0  0  0  0  0  0  0  0  0
   -4.4232   10.5868   -3.3367 C   0  0  0  0  0  0  0  0  0  0  0  0
   -3.2036    9.6597   -3.3983 C   0  0  0  0  0  0  0  0  0  0  0  0
   -2.3289    9.7273   -2.1443 C   0  0  0  0  0  0  0  0  0  0  0  0
   -1.1989    8.7294   -2.2027 C   0  0  0  0  0  0  0  0  0  0  0  0
   -1.3368    7.4611   -1.6330 C   0  0  0  0  0  0  0  0  0  0  0  0
   -0.2925    6.5334   -1.6998 C   0  0  0  0  0  0  0  0  0  0  0  0
    0.9049    6.8554   -2.3448 C   0  0  0  0  0  0  0  0  0  0  0  0
    1.9855    6.0196   -2.4489 O   0  0  0  0  0  0  0  0  0  0  0  0
    1.8471    4.7032   -1.9311 C   0  0  0  0  0  0  0  0  0  0  0  0
    1.0513    8.1234   -2.9345 C   0  0  0  0  0  0  0  0  0  0  0  0
    2.3312    8.5311   -3.6343 C   0  0  0  0  0  0  0  0  0  0  0  0
    3.4049    8.9802   -2.6380 C   0  0  0  0  0  0  0  0  0  0  0  0
    4.6030    9.4454   -3.3280 N   0  0  0  0  0  0  0  0  0  0  0  0
    4.6631   10.8129   -3.6129 C   0  0  0  0  0  0  0  0  0  0  0  0
    3.5350   11.5342   -3.8575 N   0  0  0  0  0  0  0  0  0  0  0  0
    3.6507   12.8489   -4.1493 C   0  0  0  0  0  0  0  0  0  0  0  0
    4.7708   13.5952   -4.2298 N   0  0  0  0  0  0  0  0  0  0  0  0
    5.8506   12.8445   -3.9745 C   0  0  0  0  0  0  0  0  0  0  0  0
    7.1516   13.2552   -3.9627 N   0  0  0  0  0  0  0  0  0  0  0  0
    7.9245   12.1708   -3.6468 C   0  0  0  0  0  0  0  0  0  0  0  0
    7.1992   11.0887   -3.4555 N   0  0  0  0  0  0  0  0  0  0  0  0
    5.8947   11.4963   -3.6672 C   0  0  0  0  0  0  0  0  0  0  0  0
   -0.0023    9.0507   -2.8537 C   0  0  0  0  0  0  0  0  0  0  0  0
  1  2  1  0
  2  3  1  0
  3  4  1  0
  4  5  1  0
  5  6  1  0
  6  7  2  0
  7  8  1  0
  8  9  2  0
  9 10  1  0
 10 11  1  0
  9 12  1  0
 12 13  1  0
 13 14  1  0
 14 15  1  0
 15 16  1  0
 16 17  2  0
 17 18  1  0
 18 19  2  0
 19 20  1  0
 20 21  1  0
 21 22  1  0
 22 23  2  0
 23 24  1  0
 12 25  2  0
 25  6  1  0
 24 16  1  0
 24 20  2  0
M  END
$$$$
