
     RDKit          3D

 20 21  0  0  0  0  0  0  0  0999 V2000
    9.6394  -16.6320  -14.6556 C   0  0  0  0  0  0  0  0  0  0  0  0
    8.2878  -16.4304  -15.1609 N   0  0  0  0  0  0  0  0  0  0  0  0
    7.3383  -17.3208  -14.4935 C   0  0  0  0  0  0  0  0  0  0  0  0
    5.9165  -17.1113  -15.0201 C   0  0  0  0  0  0  0  0  0  0  0  0
    5.3728  -15.7112  -14.7199 C   0  0  0  0  0  0  0  0  0  0  0  0
    3.9353  -15.5709  -15.1638 C   0  0  0  0  0  0  0  0  0  0  0  0
    3.6366  -15.1617  -16.4658 C   0  0  0  0  0  0  0  0  0  0  0  0
    2.3111  -15.0485  -16.8721 C   0  0  0  0  0  0  0  0  0  0  0  0
    1.2785  -15.3409  -15.9766 C   0  0  0  0  0  0  0  0  0  0  0  0
   -0.0011  -15.1797  -16.4599 O   0  0  0  0  0  0  0  0  0  0  0  0
   -0.5837  -13.9927  -15.9207 C   0  0  0  0  0  0  0  0  0  0  0  0
    1.5348  -15.8065  -14.6660 C   0  0  0  0  0  0  0  0  0  0  0  0
    0.4795  -16.1633  -13.8017 N   0  0  0  0  0  0  0  0  0  0  0  0
   -0.2731  -17.3413  -14.2617 C   0  0  0  0  0  0  0  0  0  0  0  0
   -1.6381  -17.3410  -13.5774 C   0  0  0  0  0  0  0  0  0  0  0  0
   -1.4957  -17.3876  -12.0637 C   0  0  0  0  0  0  0  0  0  0  0  0
   -0.5648  -16.2996  -11.5750 C   0  0  0  0  0  0  0  0  0  0  0  0
   -0.7866  -15.7016  -10.5201 O   0  0  0  0  0  0  0  0  0  0  0  0
    0.7326  -16.1163  -12.3514 C   0  0  0  0  0  0  0  0  0  0  0  0
    2.8851  -15.8924  -14.2823 C   0  0  0  0  0  0  0  0  0  0  0  0
  1  2  1  0
  2  3  1  0
  3  4  1  0
  4  5  1  0
  5  6  1  0
  6  7  2  0
  7  8  1  0
  8  9  2  0
  9 10  1  0
 10 11  1  0
  9 12  1  0
 12 13  1  0
 13 14  1  0
 14 15  1  0
 15 16  1  0
 16 17  1  0
 17 18  2  0
 17 19  1  0
 12 20  2  0
 20  6  1  0
 19 13  1  0
M  END
$$$$
