
     RDKit          3D

 28 31  0  0  0  0  0  0  0  0999 V2000
   -3.3434   20.4734    2.7401 N   0  0  0  0  0  0  0  0  0  0  0  0
   -3.0468   21.3344    3.7587 C   0  0  0  0  0  0  0  0  0  0  0  0
   -2.3557   22.3343    3.5788 O   0  0  0  0  0  0  0  0  0  0  0  0
   -3.6286   21.0285    5.0867 C   0  0  0  0  0  0  0  0  0  0  0  0
   -4.1201   22.1376    5.7862 C   0  0  0  0  0  0  0  0  0  0  0  0
   -4.7456   21.9246    6.9920 C   0  0  0  0  0  0  0  0  0  0  0  0
   -4.9022   20.7050    7.5352 N   0  0  0  0  0  0  0  0  0  0  0  0
   -4.3910   19.6563    6.8471 C   0  0  0  0  0  0  0  0  0  0  0  0
   -3.7351   19.7255    5.6139 C   0  0  0  0  0  0  0  0  0  0  0  0
   -3.1802   18.5893    4.9861 N   0  0  0  0  0  0  0  0  0  0  0  0
   -3.8638   17.3028    5.2154 C   0  0  0  0  0  0  0  0  0  0  0  0
   -3.4020   16.2944    4.1743 C   0  0  0  0  0  0  0  0  0  0  0  0
   -4.1839   15.5241    3.6136 O   0  0  0  0  0  0  0  0  0  0  0  0
   -1.9266   16.2813    3.8655 C   0  0  0  0  0  0  0  0  0  0  0  0
   -1.1694   17.1065    4.8940 C   0  0  0  0  0  0  0  0  0  0  0  0
   -1.6888   18.5517    4.9596 C   0  0  0  0  0  0  0  0  0  0  0  0
   -1.1650   19.1872    6.1183 O   0  0  0  0  0  0  0  0  0  0  0  0
    0.1578   19.6805    5.9606 C   0  0  0  0  0  0  0  0  0  0  0  0
    0.1576   20.8514    5.1196 N   0  0  0  0  0  0  0  0  0  0  0  0
    0.6731   20.7602    3.8806 C   0  0  0  0  0  0  0  0  0  0  0  0
    1.5140   19.8745    3.4032 N   0  0  0  0  0  0  0  0  0  0  0  0
    1.6621   20.1912    2.0765 C   0  0  0  0  0  0  0  0  0  0  0  0
    2.4495   19.5778    1.0890 C   0  0  0  0  0  0  0  0  0  0  0  0
    2.4107   20.0903   -0.2091 C   0  0  0  0  0  0  0  0  0  0  0  0
    1.5937   21.1792   -0.5252 C   0  0  0  0  0  0  0  0  0  0  0  0
    0.7977   21.8014    0.4464 C   0  0  0  0  0  0  0  0  0  0  0  0
    0.8706   21.2817    1.7350 C   0  0  0  0  0  0  0  0  0  0  0  0
    0.2650   21.6354    2.9095 N   0  0  0  0  0  0  0  0  0  0  0  0
  1  2  1  0
  2  3  2  0
  2  4  1  0
  4  5  2  0
  5  6  1  0
  6  7  2  0
  7  8  1  0
  8  9  2  0
  9 10  1  0
 10 11  1  0
 11 12  1  0
 12 13  2  0
 12 14  1  0
 14 15  1  0
 15 16  1  0
 16 17  1  0
 17 18  1  0
 18 19  1  0
 19 20  1  0
 20 21  2  0
 21 22  1  0
 22 23  2  0
 23 24  1  0
 24 25  2  0
 25 26  1  0
 26 27  2  0
 27 28  1  0
  9  4  1  0
 16 10  1  0
 28 20  1  0
 27 22  1  0
M  END
$$$$
