
     RDKit          3D

 21 23  0  0  0  0  0  0  0  0999 V2000
  -20.5682   10.7355   27.4263 N   0  0  0  0  0  0  0  0  0  0  0  0
  -19.2177   10.9504   27.3366 C   0  0  0  0  0  0  0  0  0  0  0  0
  -18.4948   10.8439   28.3163 O   0  0  0  0  0  0  0  0  0  0  0  0
  -18.7188   11.3247   25.9900 C   0  0  0  0  0  0  0  0  0  0  0  0
  -19.3283   12.4504   25.4116 C   0  0  0  0  0  0  0  0  0  0  0  0
  -18.8523   12.9052   24.2022 C   0  0  0  0  0  0  0  0  0  0  0  0
  -17.8288   12.3281   23.5558 N   0  0  0  0  0  0  0  0  0  0  0  0
  -17.2511   11.2507   24.1564 C   0  0  0  0  0  0  0  0  0  0  0  0
  -17.6431   10.6594   25.3647 C   0  0  0  0  0  0  0  0  0  0  0  0
  -17.0164    9.5228   25.8768 N   0  0  0  0  0  0  0  0  0  0  0  0
  -17.8685    8.4192   26.3470 C   0  0  0  0  0  0  0  0  0  0  0  0
  -17.3846    7.0664   25.8156 C   0  0  0  0  0  0  0  0  0  0  0  0
  -16.8242    7.2109   24.4079 C   0  0  0  0  0  0  0  0  0  0  0  0
  -15.6305    8.1750   24.3794 C   0  0  0  0  0  0  0  0  0  0  0  0
  -15.6111    9.1796   25.5724 C   0  0  0  0  0  0  0  0  0  0  0  0
  -14.5896   10.2474   25.4132 N   0  0  0  0  0  0  0  0  0  0  0  0
  -14.5297   11.0563   26.6497 C   0  0  0  0  0  0  0  0  0  0  0  0
  -13.5651   12.2344   26.5078 C   0  0  0  0  0  0  0  0  0  0  0  0
  -12.1696   11.7598   26.1312 C   0  0  0  0  0  0  0  0  0  0  0  0
  -12.2364   10.8671   24.9011 C   0  0  0  0  0  0  0  0  0  0  0  0
  -13.2523    9.7350   25.0788 C   0  0  0  0  0  0  0  0  0  0  0  0
  1  2  1  0
  2  3  2  0
  2  4  1  0
  4  5  2  0
  5  6  1  0
  6  7  2  0
  7  8  1  0
  8  9  2  0
  9 10  1  0
 10 11  1  0
 11 12  1  0
 12 13  1  0
 13 14  1  0
 14 15  1  0
 15 16  1  0
 16 17  1  0
 17 18  1  0
 18 19  1  0
 19 20  1  0
 20 21  1  0
  9  4  1  0
 15 10  1  0
 21 16  1  0
M  END
$$$$
