
     RDKit          3D

 25 27  0  0  0  0  0  0  0  0999 V2000
   -3.8846   13.7596   27.8279 N   0  0  0  0  0  0  0  0  0  0  0  0
   -4.7225   14.7251   28.5294 C   0  0  0  0  0  0  0  0  0  0  0  0
   -5.4023   14.1565   29.7831 C   0  0  0  0  0  0  0  0  0  0  0  0
   -6.3042   12.9046   29.6473 C   0  0  0  0  0  0  0  0  0  0  0  0
   -5.4758   11.6080   29.5802 C   0  0  0  0  0  0  0  0  0  0  0  0
   -6.3635   10.3645   29.6462 C   0  0  0  0  0  0  0  0  0  0  0  0
   -7.6170   10.4744   28.7789 C   0  0  0  0  0  0  0  0  0  0  0  0
   -7.5409   11.6385   27.7952 C   0  0  0  0  0  0  0  0  0  0  0  0
   -7.3687   12.9893   28.5174 C   0  0  0  0  0  0  0  0  0  0  0  0
   -8.6365   13.3009   29.1445 O   0  0  0  0  0  0  0  0  0  0  0  0
   -9.2828   14.5243   28.6925 N   0  0  0  0  0  0  0  0  0  0  0  0
   -8.5338   15.7170   29.0500 C   0  0  0  0  0  0  0  0  0  0  0  0
   -9.3359   16.9642   28.6933 C   0  0  0  0  0  0  0  0  0  0  0  0
   -9.6260   17.0413   27.1993 C   0  0  0  0  0  0  0  0  0  0  0  0
   -9.5928   15.6837   26.4939 C   0  0  0  0  0  0  0  0  0  0  0  0
   -9.8692   14.4288   27.3624 C   0  0  0  0  0  0  0  0  0  0  0  0
  -11.2903   14.0522   27.3914 N   0  0  0  0  0  0  0  0  0  0  0  0
  -12.2478   14.9971   27.9698 C   0  0  0  0  0  0  0  0  0  0  0  0
  -12.4919   14.8528   29.4716 C   0  0  0  0  0  0  0  0  0  0  0  0
  -12.9005   13.4325   29.8279 C   0  0  0  0  0  0  0  0  0  0  0  0
  -11.8873   12.4343   29.2833 C   0  0  0  0  0  0  0  0  0  0  0  0
  -11.5495   12.6539   27.7989 C   0  0  0  0  0  0  0  0  0  0  0  0
  -12.6858   12.0819   26.9132 C   0  0  0  0  0  0  0  0  0  0  0  0
  -12.2958   11.1390   25.9875 N   0  0  0  0  0  0  0  0  0  0  0  0
  -13.8734   12.3876   26.9953 O   0  0  0  0  0  0  0  0  0  0  0  0
  1  2  1  0
  2  3  1  0
  3  4  1  0
  4  5  1  0
  5  6  1  0
  6  7  1  0
  7  8  1  0
  8  9  1  0
  9 10  1  0
 10 11  1  0
 11 12  1  0
 12 13  1  0
 13 14  1  0
 14 15  1  0
 15 16  1  0
 16 17  1  0
 17 18  1  0
 18 19  1  0
 19 20  1  0
 20 21  1  0
 21 22  1  0
 22 23  1  0
 23 24  1  0
 23 25  2  0
  9  4  1  0
 16 11  1  0
 22 17  1  0
M  END
$$$$
