
     RDKit          3D

 29 32  0  0  0  0  0  0  0  0999 V2000
    6.7811    1.7864   -2.1513 N   0  0  0  0  0  0  0  0  0  0  0  0
    6.1278    1.0495   -1.0737 C   0  0  0  0  0  0  0  0  0  0  0  0
    5.1727    1.9203   -0.2890 C   0  0  0  0  0  0  0  0  0  0  0  0
    5.7275    2.6746    0.7733 C   0  0  0  0  0  0  0  0  0  0  0  0
    4.9569    3.5677    1.5187 C   0  0  0  0  0  0  0  0  0  0  0  0
    3.6200    3.7288    1.1991 C   0  0  0  0  0  0  0  0  0  0  0  0
    2.8231    4.5983    1.8845 O   0  0  0  0  0  0  0  0  0  0  0  0
    3.0515    3.0026    0.1598 C   0  0  0  0  0  0  0  0  0  0  0  0
    3.8011    2.0722   -0.5899 C   0  0  0  0  0  0  0  0  0  0  0  0
    3.1126    1.4129   -1.6168 N   0  0  0  0  0  0  0  0  0  0  0  0
    3.2583    2.0862   -2.9216 C   0  0  0  0  0  0  0  0  0  0  0  0
    2.3471    1.4559   -3.9626 C   0  0  0  0  0  0  0  0  0  0  0  0
    1.6880    2.1284   -4.7615 O   0  0  0  0  0  0  0  0  0  0  0  0
    2.3307   -0.0564   -4.0287 C   0  0  0  0  0  0  0  0  0  0  0  0
    3.2242   -0.6607   -2.9507 C   0  0  0  0  0  0  0  0  0  0  0  0
    2.9608   -0.0515   -1.5579 C   0  0  0  0  0  0  0  0  0  0  0  0
    1.5322   -0.4051   -1.0878 C   0  0  0  0  0  0  0  0  0  0  0  0
    1.3200   -0.2418    0.4224 C   0  0  0  0  0  0  0  0  0  0  0  0
   -0.0617   -0.7161    0.8957 C   0  0  0  0  0  0  0  0  0  0  0  0
   -1.1171    0.2270    0.5575 N   0  0  0  0  0  0  0  0  0  0  0  0
   -1.6706    0.1236   -0.7220 C   0  0  0  0  0  0  0  0  0  0  0  0
   -1.8530   -1.0886   -1.3147 N   0  0  0  0  0  0  0  0  0  0  0  0
   -2.3743   -1.1297   -2.5624 C   0  0  0  0  0  0  0  0  0  0  0  0
   -2.7336   -0.1007   -3.3586 N   0  0  0  0  0  0  0  0  0  0  0  0
   -2.5185    1.0673   -2.7371 C   0  0  0  0  0  0  0  0  0  0  0  0
   -2.7247    2.3197   -3.2430 N   0  0  0  0  0  0  0  0  0  0  0  0
   -2.3597    3.2192   -2.2769 C   0  0  0  0  0  0  0  0  0  0  0  0
   -1.9385    2.6227   -1.1807 N   0  0  0  0  0  0  0  0  0  0  0  0
   -2.0235    1.2711   -1.4612 C   0  0  0  0  0  0  0  0  0  0  0  0
  1  2  1  0
  2  3  1  0
  3  4  2  0
  4  5  1  0
  5  6  2  0
  6  7  1  0
  6  8  1  0
  8  9  2  0
  9 10  1  0
 10 11  1  0
 11 12  1  0
 12 13  2  0
 12 14  1  0
 14 15  1  0
 15 16  1  0
 16 17  1  0
 17 18  1  0
 18 19  1  0
 19 20  1  0
 20 21  1  0
 21 22  2  0
 22 23  1  0
 23 24  2  0
 24 25  1  0
 25 26  1  0
 26 27  1  0
 27 28  2  0
 28 29  1  0
  9  3  1  0
 16 10  1  0
 29 21  1  0
 29 25  2  0
M  END
$$$$
