
     RDKit          3D

 19 20  0  0  0  0  0  0  0  0999 V2000
    4.9937   -2.1715    7.5422 C   0  0  0  0  0  0  0  0  0  0  0  0
    5.7141   -2.1649    6.2748 N   0  0  0  0  0  0  0  0  0  0  0  0
    7.0824   -2.7094    6.4102 C   0  0  0  0  0  0  0  0  0  0  0  0
    7.1176   -4.2560    6.5429 C   0  0  0  0  0  0  0  0  0  0  0  0
    8.5582   -4.7807    6.5475 C   0  0  0  0  0  0  0  0  0  0  0  0
    9.1811   -4.7096    7.9300 C   0  0  0  0  0  0  0  0  0  0  0  0
    8.8046   -3.8860    8.7719 O   0  0  0  0  0  0  0  0  0  0  0  0
   10.2570   -5.7270    8.2630 C   0  0  0  0  0  0  0  0  0  0  0  0
   11.3751   -5.7349    7.2739 C   0  0  0  0  0  0  0  0  0  0  0  0
   11.6749   -6.7479    6.3824 C   0  0  0  0  0  0  0  0  0  0  0  0
   12.7951   -6.3840    5.6815 N   0  0  0  0  0  0  0  0  0  0  0  0
   13.2150   -5.1349    6.0683 C   0  0  0  0  0  0  0  0  0  0  0  0
   14.2938   -4.3652    5.6158 C   0  0  0  0  0  0  0  0  0  0  0  0
   14.4943   -3.1173    6.2124 C   0  0  0  0  0  0  0  0  0  0  0  0
   13.6510   -2.6610    7.2225 C   0  0  0  0  0  0  0  0  0  0  0  0
   12.5756   -3.4433    7.6625 C   0  0  0  0  0  0  0  0  0  0  0  0
   12.3494   -4.7050    7.0743 C   0  0  0  0  0  0  0  0  0  0  0  0
    6.4164   -4.8010    5.4030 O   0  0  0  0  0  0  0  0  0  0  0  0
    5.7964   -6.0532    5.6747 C   0  0  0  0  0  0  0  0  0  0  0  0
  1  2  1  0
  2  3  1  0
  3  4  1  0
  4  5  1  0
  5  6  1  0
  6  7  2  0
  6  8  1  0
  8  9  1  0
  9 10  2  0
 10 11  1  0
 11 12  1  0
 12 13  2  0
 13 14  1  0
 14 15  2  0
 15 16  1  0
 16 17  2  0
  4 18  1  0
 18 19  1  0
 17  9  1  0
 17 12  1  0
M  END
$$$$
