
     RDKit          3D

 29 32  0  0  0  0  0  0  0  0999 V2000
    3.0420   11.8109   -2.9650 N   0  0  0  0  0  0  0  0  0  0  0  0
    2.7411   11.7284   -4.3962 C   0  0  0  0  0  0  0  0  0  0  0  0
    2.7559   13.0924   -5.0543 C   0  0  0  0  0  0  0  0  0  0  0  0
    1.6914   13.9730   -4.7546 C   0  0  0  0  0  0  0  0  0  0  0  0
    1.5988   15.2258   -5.3545 C   0  0  0  0  0  0  0  0  0  0  0  0
    2.5753   15.6063   -6.2668 C   0  0  0  0  0  0  0  0  0  0  0  0
    2.4861   17.1843   -7.0635 S   0  0  0  0  0  0  0  0  0  0  0  0
    3.6794   18.0480   -6.2489 N   0  0  0  0  0  0  0  0  0  0  0  0
    1.2392   17.8165   -6.6974 O   0  0  0  0  0  0  0  0  0  0  0  0
    2.9042   17.0239   -8.4350 O   0  0  0  0  0  0  0  0  0  0  0  0
    3.6302   14.7464   -6.5881 C   0  0  0  0  0  0  0  0  0  0  0  0
    3.7499   13.4815   -5.9837 C   0  0  0  0  0  0  0  0  0  0  0  0
    4.8273   12.6467   -6.2960 N   0  0  0  0  0  0  0  0  0  0  0  0
    5.2530   12.5915   -7.6997 C   0  0  0  0  0  0  0  0  0  0  0  0
    5.8354   11.2070   -7.9909 C   0  0  0  0  0  0  0  0  0  0  0  0
    6.6764   10.6557   -6.8391 C   0  0  0  0  0  0  0  0  0  0  0  0
    7.1288   11.7659   -5.8990 C   0  0  0  0  0  0  0  0  0  0  0  0
    5.9238   12.5164   -5.2837 C   0  0  0  0  0  0  0  0  0  0  0  0
    6.3698   13.8718   -4.6673 C   0  0  0  0  0  0  0  0  0  0  0  0
    7.3109   13.7052   -3.5596 N   0  0  0  0  0  0  0  0  0  0  0  0
    8.6253   13.8959   -3.7722 C   0  0  0  0  0  0  0  0  0  0  0  0
    9.2283   14.3340   -4.8505 N   0  0  0  0  0  0  0  0  0  0  0  0
   10.5688   14.3327   -4.5515 C   0  0  0  0  0  0  0  0  0  0  0  0
   11.6663   14.7024   -5.3418 C   0  0  0  0  0  0  0  0  0  0  0  0
   12.9515   14.6072   -4.7923 C   0  0  0  0  0  0  0  0  0  0  0  0
   13.1391   14.1539   -3.4837 C   0  0  0  0  0  0  0  0  0  0  0  0
   12.0557   13.7805   -2.6794 C   0  0  0  0  0  0  0  0  0  0  0  0
   10.7875   13.8848   -3.2539 C   0  0  0  0  0  0  0  0  0  0  0  0
    9.5292   13.6168   -2.7812 N   0  0  0  0  0  0  0  0  0  0  0  0
  1  2  1  0
  2  3  1  0
  3  4  2  0
  4  5  1  0
  5  6  2  0
  6  7  1  0
  7  8  1  0
  7  9  2  0
  7 10  2  0
  6 11  1  0
 11 12  2  0
 12 13  1  0
 13 14  1  0
 14 15  1  0
 15 16  1  0
 16 17  1  0
 17 18  1  0
 18 19  1  0
 19 20  1  0
 20 21  1  0
 21 22  2  0
 22 23  1  0
 23 24  2  0
 24 25  1  0
 25 26  2  0
 26 27  1  0
 27 28  2  0
 28 29  1  0
 12  3  1  0
 18 13  1  0
 29 21  1  0
 28 23  1  0
M  END
$$$$
