
     RDKit          3D

 28 30  0  0  0  0  0  0  0  0999 V2000
  -44.7737    5.4457   25.4533 C   0  0  0  0  0  0  0  0  0  0  0  0
  -44.7706    6.1198   26.7061 O   0  0  0  0  0  0  0  0  0  0  0  0
  -43.7691    7.0305   26.9257 C   0  0  0  0  0  0  0  0  0  0  0  0
  -42.6943    7.2570   26.0635 C   0  0  0  0  0  0  0  0  0  0  0  0
  -41.7254    8.2146   26.3773 C   0  0  0  0  0  0  0  0  0  0  0  0
  -41.8112    8.9638   27.5566 C   0  0  0  0  0  0  0  0  0  0  0  0
  -40.7626    9.9964   27.8821 C   0  0  0  0  0  0  0  0  0  0  0  0
  -39.4667    9.3770   28.1299 N   0  0  0  0  0  0  0  0  0  0  0  0
  -42.8854    8.7304   28.4243 C   0  0  0  0  0  0  0  0  0  0  0  0
  -43.8640    7.7673   28.1218 C   0  0  0  0  0  0  0  0  0  0  0  0
  -45.0185    7.5574   29.0749 C   0  0  0  0  0  0  0  0  0  0  0  0
  -46.2938    8.2513   28.5912 C   0  0  0  0  0  0  0  0  0  0  0  0
  -47.4163    7.8620   29.4608 N   0  0  0  0  0  0  0  0  0  0  0  0
  -48.9843    8.0652   28.8547 S   0  0  0  0  0  0  0  0  0  0  0  0
  -48.9261    9.2192   27.9828 O   0  0  0  0  0  0  0  0  0  0  0  0
  -49.8284    8.0131   30.0299 O   0  0  0  0  0  0  0  0  0  0  0  0
  -49.2861    6.6000   27.9058 C   0  0  0  0  0  0  0  0  0  0  0  0
  -48.3913    5.5267   27.9799 C   0  0  0  0  0  0  0  0  0  0  0  0
  -48.6418    4.4113   27.2048 C   0  0  0  0  0  0  0  0  0  0  0  0
  -49.7024    4.2982   26.3840 N   0  0  0  0  0  0  0  0  0  0  0  0
  -50.5582    5.3486   26.3517 C   0  0  0  0  0  0  0  0  0  0  0  0
  -50.4201    6.5303   27.0869 C   0  0  0  0  0  0  0  0  0  0  0  0
  -51.3555    7.5752   27.0260 N   0  0  0  0  0  0  0  0  0  0  0  0
  -51.3618    8.2701   25.7279 C   0  0  0  0  0  0  0  0  0  0  0  0
  -52.1860    9.5518   25.8494 C   0  0  0  0  0  0  0  0  0  0  0  0
  -53.5937    9.2583   26.3661 C   0  0  0  0  0  0  0  0  0  0  0  0
  -53.5412    8.4609   27.6685 C   0  0  0  0  0  0  0  0  0  0  0  0
  -52.6934    7.1988   27.5105 C   0  0  0  0  0  0  0  0  0  0  0  0
  1  2  1  0
  2  3  1  0
  3  4  2  0
  4  5  1  0
  5  6  2  0
  6  7  1  0
  7  8  1  0
  6  9  1  0
  9 10  2  0
 10 11  1  0
 11 12  1  0
 12 13  1  0
 13 14  1  0
 14 15  2  0
 14 16  2  0
 14 17  1  0
 17 18  2  0
 18 19  1  0
 19 20  2  0
 20 21  1  0
 21 22  2  0
 22 23  1  0
 23 24  1  0
 24 25  1  0
 25 26  1  0
 26 27  1  0
 27 28  1  0
 10  3  1  0
 22 17  1  0
 28 23  1  0
M  END
$$$$
