
     RDKit          3D

 19 20  0  0  0  0  0  0  0  0999 V2000
    0.3802  -11.7561   20.8463 N   0  0  0  0  0  0  0  0  0  0  0  0
   -0.6902  -10.9728   20.2290 C   0  0  0  0  0  0  0  0  0  0  0  0
   -0.2596   -9.5549   19.8630 C   0  0  0  0  0  0  0  0  0  0  0  0
    0.6870   -9.5021   18.6787 C   0  0  0  0  0  0  0  0  0  0  0  0
    0.8292  -10.4081   17.8640 O   0  0  0  0  0  0  0  0  0  0  0  0
    1.3948   -8.2222   18.4512 C   0  0  0  0  0  0  0  0  0  0  0  0
    0.9894   -7.4877   17.3259 C   0  0  0  0  0  0  0  0  0  0  0  0
    1.5156   -6.2204   17.1020 C   0  0  0  0  0  0  0  0  0  0  0  0
    2.4324   -5.6978   18.0070 C   0  0  0  0  0  0  0  0  0  0  0  0
    3.0701   -4.1190   17.7531 Cl  0  0  0  0  0  0  0  0  0  0  0  0
    2.8517   -6.4420   19.1178 C   0  0  0  0  0  0  0  0  0  0  0  0
    2.3682   -7.7391   19.3577 C   0  0  0  0  0  0  0  0  0  0  0  0
    2.8327   -8.5204   20.4232 N   0  0  0  0  0  0  0  0  0  0  0  0
    3.2446   -7.8976   21.6882 C   0  0  0  0  0  0  0  0  0  0  0  0
    4.7574   -7.7012   21.7650 C   0  0  0  0  0  0  0  0  0  0  0  0
    5.4985   -9.0082   21.5409 C   0  0  0  0  0  0  0  0  0  0  0  0
    5.0592   -9.6205   20.2338 C   0  0  0  0  0  0  0  0  0  0  0  0
    5.8792  -10.0802   19.4387 O   0  0  0  0  0  0  0  0  0  0  0  0
    3.5568   -9.7576   20.0321 C   0  0  0  0  0  0  0  0  0  0  0  0
  1  2  1  0
  2  3  1  0
  3  4  1  0
  4  5  2  0
  4  6  1  0
  6  7  2  0
  7  8  1  0
  8  9  2  0
  9 10  1  0
  9 11  1  0
 11 12  2  0
 12 13  1  0
 13 14  1  0
 14 15  1  0
 15 16  1  0
 16 17  1  0
 17 18  2  0
 17 19  1  0
 12  6  1  0
 19 13  1  0
M  END
$$$$
