
     RDKit          3D

 23 25  0  0  0  0  0  0  0  0999 V2000
  -30.1843   -2.8852    8.7257 N   0  0  0  0  0  0  0  0  0  0  0  0
  -30.7351   -1.6685    8.1381 C   0  0  0  0  0  0  0  0  0  0  0  0
  -29.8260   -1.0687    7.0642 C   0  0  0  0  0  0  0  0  0  0  0  0
  -29.7319   -1.9295    5.7992 C   0  0  0  0  0  0  0  0  0  0  0  0
  -28.7850   -1.3342    4.7758 C   0  0  0  0  0  0  0  0  0  0  0  0
  -29.2080   -0.2016    4.0601 C   0  0  0  0  0  0  0  0  0  0  0  0
  -28.3387    0.3987    3.1658 C   0  0  0  0  0  0  0  0  0  0  0  0
  -27.0887   -0.0391    2.9349 N   0  0  0  0  0  0  0  0  0  0  0  0
  -26.6969   -1.1304    3.6390 C   0  0  0  0  0  0  0  0  0  0  0  0
  -27.4846   -1.8380    4.5587 C   0  0  0  0  0  0  0  0  0  0  0  0
  -27.0522   -3.0084    5.2127 N   0  0  0  0  0  0  0  0  0  0  0  0
  -27.5154   -4.2230    4.5148 C   0  0  0  0  0  0  0  0  0  0  0  0
  -27.5025   -5.3830    5.4992 C   0  0  0  0  0  0  0  0  0  0  0  0
  -28.1916   -6.3908    5.3389 O   0  0  0  0  0  0  0  0  0  0  0  0
  -26.5813   -5.2353    6.6880 C   0  0  0  0  0  0  0  0  0  0  0  0
  -25.3377   -4.4710    6.2505 C   0  0  0  0  0  0  0  0  0  0  0  0
  -25.6480   -3.0454    5.6901 C   0  0  0  0  0  0  0  0  0  0  0  0
  -25.2177   -1.9865    6.6077 N   0  0  0  0  0  0  0  0  0  0  0  0
  -25.8612   -1.9991    7.9139 C   0  0  0  0  0  0  0  0  0  0  0  0
  -25.7043   -0.6307    8.5869 C   0  0  0  0  0  0  0  0  0  0  0  0
  -24.3260   -0.0005    8.3687 C   0  0  0  0  0  0  0  0  0  0  0  0
  -23.3052   -1.0384    7.9234 C   0  0  0  0  0  0  0  0  0  0  0  0
  -23.7708   -1.7734    6.6594 C   0  0  0  0  0  0  0  0  0  0  0  0
  1  2  1  0
  2  3  1  0
  3  4  1  0
  4  5  1  0
  5  6  2  0
  6  7  1  0
  7  8  2  0
  8  9  1  0
  9 10  2  0
 10 11  1  0
 11 12  1  0
 12 13  1  0
 13 14  2  0
 13 15  1  0
 15 16  1  0
 16 17  1  0
 17 18  1  0
 18 19  1  0
 19 20  1  0
 20 21  1  0
 21 22  1  0
 22 23  1  0
 10  5  1  0
 17 11  1  0
 23 18  1  0
M  END
$$$$
