
     RDKit          3D

 31 34  0  0  0  0  0  0  0  0999 V2000
  -29.3887  -32.2925   66.0138 N   0  0  0  0  0  0  0  0  0  0  0  0
  -28.1234  -31.7503   67.0040 S   0  0  0  0  0  0  0  0  0  0  0  0
  -27.2168  -31.1508   66.0442 O   0  0  0  0  0  0  0  0  0  0  0  0
  -28.6995  -31.0534   68.1301 O   0  0  0  0  0  0  0  0  0  0  0  0
  -27.4563  -33.2889   67.6321 C   0  0  0  0  0  0  0  0  0  0  0  0
  -28.4295  -34.1856   68.1207 C   0  0  0  0  0  0  0  0  0  0  0  0
  -28.0586  -35.4876   68.3691 C   0  0  0  0  0  0  0  0  0  0  0  0
  -26.8185  -35.9428   68.1442 N   0  0  0  0  0  0  0  0  0  0  0  0
  -25.8923  -35.0225   67.7522 C   0  0  0  0  0  0  0  0  0  0  0  0
  -26.1009  -33.6501   67.5356 C   0  0  0  0  0  0  0  0  0  0  0  0
  -25.0574  -32.7721   67.2648 N   0  0  0  0  0  0  0  0  0  0  0  0
  -24.9269  -31.5605   68.1001 C   0  0  0  0  0  0  0  0  0  0  0  0
  -24.0262  -30.5323   67.4216 C   0  0  0  0  0  0  0  0  0  0  0  0
  -23.5347  -29.5883   68.0438 O   0  0  0  0  0  0  0  0  0  0  0  0
  -23.8027  -30.6976   65.9292 C   0  0  0  0  0  0  0  0  0  0  0  0
  -23.4787  -32.1380   65.5208 C   0  0  0  0  0  0  0  0  0  0  0  0
  -23.8171  -33.2017   66.5837 C   0  0  0  0  0  0  0  0  0  0  0  0
  -22.5927  -33.3874   67.5393 C   0  0  0  0  0  0  0  0  0  0  0  0
  -22.7716  -34.4593   68.5339 N   0  0  0  0  0  0  0  0  0  0  0  0
  -21.5915  -34.6278   69.4021 C   0  0  0  0  0  0  0  0  0  0  0  0
  -20.5122  -35.5550   68.8076 C   0  0  0  0  0  0  0  0  0  0  0  0
  -19.3986  -34.8746   67.9902 C   0  0  0  0  0  0  0  0  0  0  0  0
  -18.5017  -33.9992   68.8112 C   0  0  0  0  0  0  0  0  0  0  0  0
  -17.4697  -34.4286   69.6192 C   0  0  0  0  0  0  0  0  0  0  0  0
  -16.8830  -33.3370   70.1937 N   0  0  0  0  0  0  0  0  0  0  0  0
  -17.5119  -32.1834   69.7828 C   0  0  0  0  0  0  0  0  0  0  0  0
  -17.2569  -30.8480   70.1220 C   0  0  0  0  0  0  0  0  0  0  0  0
  -18.0716  -29.8682   69.5459 C   0  0  0  0  0  0  0  0  0  0  0  0
  -19.0955  -30.2096   68.6667 C   0  0  0  0  0  0  0  0  0  0  0  0
  -19.3319  -31.5482   68.3348 C   0  0  0  0  0  0  0  0  0  0  0  0
  -18.5296  -32.5631   68.9052 C   0  0  0  0  0  0  0  0  0  0  0  0
  1  2  1  0
  2  3  2  0
  2  4  2  0
  2  5  1  0
  5  6  2  0
  6  7  1  0
  7  8  2  0
  8  9  1  0
  9 10  2  0
 10 11  1  0
 11 12  1  0
 12 13  1  0
 13 14  2  0
 13 15  1  0
 15 16  1  0
 16 17  1  0
 17 18  1  0
 18 19  1  0
 19 20  1  0
 20 21  1  0
 21 22  1  0
 22 23  1  0
 23 24  2  0
 24 25  1  0
 25 26  1  0
 26 27  2  0
 27 28  1  0
 28 29  2  0
 29 30  1  0
 30 31  2  0
 10  5  1  0
 17 11  1  0
 31 23  1  0
 31 26  1  0
M  END
$$$$
