
     RDKit          3D

 19 20  0  0  0  0  0  0  0  0999 V2000
   -1.8508   -3.8056    2.5318 N   0  0  0  0  0  0  0  0  0  0  0  0
   -1.3438   -4.3233    1.2663 C   0  0  0  0  0  0  0  0  0  0  0  0
   -1.3137   -3.2444    0.1941 C   0  0  0  0  0  0  0  0  0  0  0  0
   -2.7058   -2.8639   -0.2661 C   0  0  0  0  0  0  0  0  0  0  0  0
   -3.4626   -3.6841   -0.7898 O   0  0  0  0  0  0  0  0  0  0  0  0
   -3.1345   -1.4369   -0.0763 C   0  0  0  0  0  0  0  0  0  0  0  0
   -3.5702   -1.1298    1.3295 C   0  0  0  0  0  0  0  0  0  0  0  0
   -2.7767   -0.6537    2.1444 O   0  0  0  0  0  0  0  0  0  0  0  0
   -5.0004   -1.4457    1.7061 C   0  0  0  0  0  0  0  0  0  0  0  0
   -5.0924   -2.7515    2.4812 C   0  0  0  0  0  0  0  0  0  0  0  0
   -6.5127   -3.1380    2.7460 C   0  0  0  0  0  0  0  0  0  0  0  0
   -7.2593   -2.8181    3.8627 C   0  0  0  0  0  0  0  0  0  0  0  0
   -8.5096   -3.3544    3.7110 N   0  0  0  0  0  0  0  0  0  0  0  0
   -8.6013   -4.0194    2.5108 C   0  0  0  0  0  0  0  0  0  0  0  0
   -9.6783   -4.7084    1.9399 C   0  0  0  0  0  0  0  0  0  0  0  0
   -9.4791   -5.2987    0.6883 C   0  0  0  0  0  0  0  0  0  0  0  0
   -8.2519   -5.2026    0.0367 C   0  0  0  0  0  0  0  0  0  0  0  0
   -7.1857   -4.5098    0.6216 C   0  0  0  0  0  0  0  0  0  0  0  0
   -7.3608   -3.9048    1.8834 C   0  0  0  0  0  0  0  0  0  0  0  0
  1  2  1  0
  2  3  1  0
  3  4  1  0
  4  5  2  0
  4  6  1  0
  6  7  1  0
  7  8  2  0
  7  9  1  0
  9 10  1  0
 10 11  1  0
 11 12  2  0
 12 13  1  0
 13 14  1  0
 14 15  2  0
 15 16  1  0
 16 17  2  0
 17 18  1  0
 18 19  2  0
 19 11  1  0
 19 14  1  0
M  END
$$$$
