
     RDKit          3D

 17 18  0  0  0  0  0  0  0  0999 V2000
   -0.1782   21.5602   22.1795 N   0  0  0  0  0  0  0  0  0  0  0  0
    0.2202   21.4866   20.7692 C   0  0  0  0  0  0  0  0  0  0  0  0
    1.2483   20.3923   20.4924 C   0  0  0  0  0  0  0  0  0  0  0  0
    2.0529   20.5054   19.5677 O   0  0  0  0  0  0  0  0  0  0  0  0
    1.2029   19.1295   21.2782 C   0  0  0  0  0  0  0  0  0  0  0  0
   -0.0345   18.4556   21.3205 C   0  0  0  0  0  0  0  0  0  0  0  0
   -0.1514   17.2330   21.9777 C   0  0  0  0  0  0  0  0  0  0  0  0
    0.9674   16.6809   22.5799 C   0  0  0  0  0  0  0  0  0  0  0  0
    0.8638   15.5028   23.2087 F   0  0  0  0  0  0  0  0  0  0  0  0
    2.1958   17.3323   22.5403 C   0  0  0  0  0  0  0  0  0  0  0  0
    2.3463   18.5759   21.8970 C   0  0  0  0  0  0  0  0  0  0  0  0
    3.6277   19.1364   21.9367 N   0  0  0  0  0  0  0  0  0  0  0  0
    3.7944   20.4940   22.4652 C   0  0  0  0  0  0  0  0  0  0  0  0
    4.6894   21.3533   21.5765 C   0  0  0  0  0  0  0  0  0  0  0  0
    6.0338   20.6871   21.2899 C   0  0  0  0  0  0  0  0  0  0  0  0
    5.9280   19.1707   21.1221 C   0  0  0  0  0  0  0  0  0  0  0  0
    4.4997   18.7191   20.8305 C   0  0  0  0  0  0  0  0  0  0  0  0
  1  2  1  0
  2  3  1  0
  3  4  2  0
  3  5  1  0
  5  6  2  0
  6  7  1  0
  7  8  2  0
  8  9  1  0
  8 10  1  0
 10 11  2  0
 11 12  1  0
 12 13  1  0
 13 14  1  0
 14 15  1  0
 15 16  1  0
 16 17  1  0
 11  5  1  0
 17 12  1  0
M  END
$$$$
