
     RDKit          3D

 17 18  0  0  0  0  0  0  0  0999 V2000
  -85.0074    4.2134   66.9365 N   0  0  0  0  0  0  0  0  0  0  0  0
  -83.9031    5.1188   67.2167 C   0  0  0  0  0  0  0  0  0  0  0  0
  -83.4895    5.9647   66.0086 C   0  0  0  0  0  0  0  0  0  0  0  0
  -83.1688    5.1815   64.7400 C   0  0  0  0  0  0  0  0  0  0  0  0
  -82.1539    4.0805   64.9667 C   0  0  0  0  0  0  0  0  0  0  0  0
  -82.5144    2.9044   65.0289 O   0  0  0  0  0  0  0  0  0  0  0  0
  -80.7085    4.4974   65.1345 C   0  0  0  0  0  0  0  0  0  0  0  0
  -79.7874    3.2856   65.2382 C   0  0  0  0  0  0  0  0  0  0  0  0
  -78.3605    3.6902   65.3883 C   0  0  0  0  0  0  0  0  0  0  0  0
  -77.7894    4.7745   64.9055 N   0  0  0  0  0  0  0  0  0  0  0  0
  -76.4703    4.6983   65.2824 C   0  0  0  0  0  0  0  0  0  0  0  0
  -75.4135    5.5865   65.0378 C   0  0  0  0  0  0  0  0  0  0  0  0
  -74.1431    5.2736   65.5397 C   0  0  0  0  0  0  0  0  0  0  0  0
  -73.9299    4.0989   66.2680 C   0  0  0  0  0  0  0  0  0  0  0  0
  -74.9731    3.2003   66.5223 C   0  0  0  0  0  0  0  0  0  0  0  0
  -76.2286    3.5394   66.0124 C   0  0  0  0  0  0  0  0  0  0  0  0
  -77.4472    2.9135   66.0628 N   0  0  0  0  0  0  0  0  0  0  0  0
  1  2  1  0
  2  3  1  0
  3  4  1  0
  4  5  1  0
  5  6  2  0
  5  7  1  0
  7  8  1  0
  8  9  1  0
  9 10  2  0
 10 11  1  0
 11 12  2  0
 12 13  1  0
 13 14  2  0
 14 15  1  0
 15 16  2  0
 16 17  1  0
 17  9  1  0
 16 11  1  0
M  END
$$$$
