
     RDKit          3D

 19 20  0  0  0  0  0  0  0  0999 V2000
   -5.9534  -47.8157   31.8394 N   0  0  0  0  0  0  0  0  0  0  0  0
   -6.5927  -46.5008   31.8278 C   0  0  0  0  0  0  0  0  0  0  0  0
   -7.2427  -46.1538   33.1599 C   0  0  0  0  0  0  0  0  0  0  0  0
   -8.5719  -46.8551   33.3527 C   0  0  0  0  0  0  0  0  0  0  0  0
   -8.7299  -47.6721   34.2632 O   0  0  0  0  0  0  0  0  0  0  0  0
   -9.6852  -46.5259   32.3725 C   0  0  0  0  0  0  0  0  0  0  0  0
  -11.0626  -46.7205   32.9919 C   0  0  0  0  0  0  0  0  0  0  0  0
  -11.3323  -45.7240   34.1059 C   0  0  0  0  0  0  0  0  0  0  0  0
  -10.5988  -44.7508   34.2939 O   0  0  0  0  0  0  0  0  0  0  0  0
  -12.5662  -45.9689   34.9543 C   0  0  0  0  0  0  0  0  0  0  0  0
  -13.8165  -45.6852   34.1926 C   0  0  0  0  0  0  0  0  0  0  0  0
  -14.3560  -44.4381   33.9510 C   0  0  0  0  0  0  0  0  0  0  0  0
  -15.4957  -44.5973   33.2115 N   0  0  0  0  0  0  0  0  0  0  0  0
  -15.7091  -45.9258   32.9483 C   0  0  0  0  0  0  0  0  0  0  0  0
  -16.7344  -46.5444   32.2231 C   0  0  0  0  0  0  0  0  0  0  0  0
  -16.6998  -47.9400   32.1081 C   0  0  0  0  0  0  0  0  0  0  0  0
  -15.6798  -48.6803   32.6970 C   0  0  0  0  0  0  0  0  0  0  0  0
  -14.6651  -48.0458   33.4240 C   0  0  0  0  0  0  0  0  0  0  0  0
  -14.6755  -46.6383   33.5543 C   0  0  0  0  0  0  0  0  0  0  0  0
  1  2  1  0
  2  3  1  0
  3  4  1  0
  4  5  2  0
  4  6  1  0
  6  7  1  0
  7  8  1  0
  8  9  2  0
  8 10  1  0
 10 11  1  0
 11 12  2  0
 12 13  1  0
 13 14  1  0
 14 15  2  0
 15 16  1  0
 16 17  2  0
 17 18  1  0
 18 19  2  0
 19 11  1  0
 19 14  1  0
M  END
$$$$
