
     RDKit          3D

 19 20  0  0  0  0  0  0  0  0999 V2000
   14.8723    9.6485  -35.0387 N   0  0  0  0  0  0  0  0  0  0  0  0
   15.3794    9.1309  -36.3041 C   0  0  0  0  0  0  0  0  0  0  0  0
   15.4094   10.2098  -37.3763 C   0  0  0  0  0  0  0  0  0  0  0  0
   14.0173   10.5903  -37.8365 C   0  0  0  0  0  0  0  0  0  0  0  0
   13.2605    9.7701  -38.3602 O   0  0  0  0  0  0  0  0  0  0  0  0
   13.5886   12.0173  -37.6467 C   0  0  0  0  0  0  0  0  0  0  0  0
   13.1530   12.3244  -36.2410 C   0  0  0  0  0  0  0  0  0  0  0  0
   13.9464   12.8004  -35.4260 O   0  0  0  0  0  0  0  0  0  0  0  0
   11.7227   12.0085  -35.8643 C   0  0  0  0  0  0  0  0  0  0  0  0
   11.6307   10.7026  -35.0892 C   0  0  0  0  0  0  0  0  0  0  0  0
   10.2104   10.3162  -34.8245 C   0  0  0  0  0  0  0  0  0  0  0  0
    9.4638   10.6361  -33.7077 C   0  0  0  0  0  0  0  0  0  0  0  0
    8.2135   10.0998  -33.8594 N   0  0  0  0  0  0  0  0  0  0  0  0
    8.1218    9.4347  -35.0596 C   0  0  0  0  0  0  0  0  0  0  0  0
    7.0448    8.7458  -35.6305 C   0  0  0  0  0  0  0  0  0  0  0  0
    7.2440    8.1555  -36.8821 C   0  0  0  0  0  0  0  0  0  0  0  0
    8.4712    8.2516  -37.5337 C   0  0  0  0  0  0  0  0  0  0  0  0
    9.5374    8.9443  -36.9488 C   0  0  0  0  0  0  0  0  0  0  0  0
    9.3623    9.5493  -35.6870 C   0  0  0  0  0  0  0  0  0  0  0  0
  1  2  1  0
  2  3  1  0
  3  4  1  0
  4  5  2  0
  4  6  1  0
  6  7  1  0
  7  8  2  0
  7  9  1  0
  9 10  1  0
 10 11  1  0
 11 12  2  0
 12 13  1  0
 13 14  1  0
 14 15  2  0
 15 16  1  0
 16 17  2  0
 17 18  1  0
 18 19  2  0
 19 11  1  0
 19 14  1  0
M  END
$$$$
