
     RDKit          3D

 25 27  0  0  0  0  0  0  0  0999 V2000
   33.4763  -11.3930  -10.4111 C   0  0  0  0  0  0  0  0  0  0  0  0
   33.7035   -9.9856  -10.3140 O   0  0  0  0  0  0  0  0  0  0  0  0
   32.8150   -9.3713   -9.4675 C   0  0  0  0  0  0  0  0  0  0  0  0
   31.4358   -9.4807   -9.6445 C   0  0  0  0  0  0  0  0  0  0  0  0
   30.5685   -8.7957   -8.7907 C   0  0  0  0  0  0  0  0  0  0  0  0
   31.0650   -7.9552   -7.7932 C   0  0  0  0  0  0  0  0  0  0  0  0
   30.1938   -7.3667   -6.8704 N   0  0  0  0  0  0  0  0  0  0  0  0
   32.4482   -7.8857   -7.5993 C   0  0  0  0  0  0  0  0  0  0  0  0
   33.3412   -8.5653   -8.4476 C   0  0  0  0  0  0  0  0  0  0  0  0
   34.8348   -8.4432   -8.2233 C   0  0  0  0  0  0  0  0  0  0  0  0
   35.4598   -7.9169   -9.4016 O   0  0  0  0  0  0  0  0  0  0  0  0
   35.4728   -9.7871   -7.7811 C   0  0  0  0  0  0  0  0  0  0  0  0
   35.0423  -10.4775   -6.8607 O   0  0  0  0  0  0  0  0  0  0  0  0
   36.5874  -10.1309   -8.5250 N   0  0  0  0  0  0  0  0  0  0  0  0
   37.4444  -11.2372   -8.1470 C   0  0  0  0  0  0  0  0  0  0  0  0
   38.3074  -11.7347   -9.3085 C   0  0  0  0  0  0  0  0  0  0  0  0
   39.2915  -10.7135   -9.7940 C   0  0  0  0  0  0  0  0  0  0  0  0
   39.1665   -9.9289  -10.9246 C   0  0  0  0  0  0  0  0  0  0  0  0
   40.2680   -9.1216  -11.0128 N   0  0  0  0  0  0  0  0  0  0  0  0
   41.1205   -9.3633   -9.9615 C   0  0  0  0  0  0  0  0  0  0  0  0
   42.3534   -8.7784   -9.6482 C   0  0  0  0  0  0  0  0  0  0  0  0
   43.0106   -9.2278   -8.4993 C   0  0  0  0  0  0  0  0  0  0  0  0
   42.4551  -10.2224   -7.6985 C   0  0  0  0  0  0  0  0  0  0  0  0
   41.2214  -10.7965   -8.0267 C   0  0  0  0  0  0  0  0  0  0  0  0
   40.5367  -10.3608   -9.1801 C   0  0  0  0  0  0  0  0  0  0  0  0
  1  2  1  0
  2  3  1  0
  3  4  2  0
  4  5  1  0
  5  6  2  0
  6  7  1  0
  6  8  1  0
  8  9  2  0
  9 10  1  0
 10 11  1  0
 10 12  1  0
 12 13  2  0
 12 14  1  0
 14 15  1  0
 15 16  1  0
 16 17  1  0
 17 18  2  0
 18 19  1  0
 19 20  1  0
 20 21  2  0
 21 22  1  0
 22 23  2  0
 23 24  1  0
 24 25  2  0
  9  3  1  0
 25 17  1  0
 25 20  1  0
M  END
$$$$
