
     RDKit          3D

 28 31  0  0  0  0  0  0  0  0999 V2000
   -6.8043   -6.5262  -15.0202 N   0  0  0  0  0  0  0  0  0  0  0  0
   -7.3162   -4.9453  -15.3664 S   0  0  0  0  0  0  0  0  0  0  0  0
   -6.1034   -4.1602  -15.2373 O   0  0  0  0  0  0  0  0  0  0  0  0
   -8.4829   -4.7398  -14.5324 O   0  0  0  0  0  0  0  0  0  0  0  0
   -7.8663   -5.0512  -17.0527 C   0  0  0  0  0  0  0  0  0  0  0  0
   -8.5523   -6.2243  -17.4217 C   0  0  0  0  0  0  0  0  0  0  0  0
   -8.9532   -6.3673  -18.7378 C   0  0  0  0  0  0  0  0  0  0  0  0
   -8.7340   -5.4325  -19.6844 N   0  0  0  0  0  0  0  0  0  0  0  0
   -8.0885   -4.3033  -19.2883 C   0  0  0  0  0  0  0  0  0  0  0  0
   -7.6133   -4.0357  -17.9934 C   0  0  0  0  0  0  0  0  0  0  0  0
   -6.9649   -2.8389  -17.6831 N   0  0  0  0  0  0  0  0  0  0  0  0
   -7.8080   -1.8356  -17.0116 C   0  0  0  0  0  0  0  0  0  0  0  0
   -6.9725   -0.6174  -16.6329 C   0  0  0  0  0  0  0  0  0  0  0  0
   -6.3725    0.0519  -17.8698 C   0  0  0  0  0  0  0  0  0  0  0  0
   -6.1813   -0.9235  -19.0343 C   0  0  0  0  0  0  0  0  0  0  0  0
   -5.8957   -2.3555  -18.5695 C   0  0  0  0  0  0  0  0  0  0  0  0
   -4.6622   -2.3600  -17.8526 O   0  0  0  0  0  0  0  0  0  0  0  0
   -4.0774   -3.6516  -17.8475 C   0  0  0  0  0  0  0  0  0  0  0  0
   -3.0238   -3.6700  -16.8471 N   0  0  0  0  0  0  0  0  0  0  0  0
   -2.3336   -4.8220  -16.6935 C   0  0  0  0  0  0  0  0  0  0  0  0
   -2.2074   -5.5451  -15.6066 N   0  0  0  0  0  0  0  0  0  0  0  0
   -1.4085   -6.6073  -15.9618 C   0  0  0  0  0  0  0  0  0  0  0  0
   -0.9691   -7.6992  -15.1957 C   0  0  0  0  0  0  0  0  0  0  0  0
   -0.1439   -8.6588  -15.8030 C   0  0  0  0  0  0  0  0  0  0  0  0
    0.2328   -8.5348  -17.1423 C   0  0  0  0  0  0  0  0  0  0  0  0
   -0.2016   -7.4531  -17.9249 C   0  0  0  0  0  0  0  0  0  0  0  0
   -1.0196   -6.5130  -17.2935 C   0  0  0  0  0  0  0  0  0  0  0  0
   -1.6022   -5.3478  -17.7269 N   0  0  0  0  0  0  0  0  0  0  0  0
  1  2  1  0
  2  3  2  0
  2  4  2  0
  2  5  1  0
  5  6  2  0
  6  7  1  0
  7  8  2  0
  8  9  1  0
  9 10  2  0
 10 11  1  0
 11 12  1  0
 12 13  1  0
 13 14  1  0
 14 15  1  0
 15 16  1  0
 16 17  1  0
 17 18  1  0
 18 19  1  0
 19 20  1  0
 20 21  2  0
 21 22  1  0
 22 23  2  0
 23 24  1  0
 24 25  2  0
 25 26  1  0
 26 27  2  0
 27 28  1  0
 10  5  1  0
 16 11  1  0
 28 20  1  0
 27 22  1  0
M  END
$$$$
