
     RDKit          3D

 16 17  0  0  0  0  0  0  0  0999 V2000
  -42.5572    1.8212   -2.2631 N   0  0  0  0  0  0  0  0  0  0  0  0
  -41.2016    1.5910   -2.7508 C   0  0  0  0  0  0  0  0  0  0  0  0
  -40.7499    0.1359   -2.6179 C   0  0  0  0  0  0  0  0  0  0  0  0
  -40.6074   -0.3186   -1.1630 C   0  0  0  0  0  0  0  0  0  0  0  0
  -40.0229   -1.7101   -1.0640 C   0  0  0  0  0  0  0  0  0  0  0  0
  -40.8871   -2.8148   -1.0557 C   0  0  0  0  0  0  0  0  0  0  0  0
  -40.3510   -4.0898   -0.9680 C   0  0  0  0  0  0  0  0  0  0  0  0
  -39.0309   -4.3436   -0.8891 N   0  0  0  0  0  0  0  0  0  0  0  0
  -38.2144   -3.2629   -0.9067 C   0  0  0  0  0  0  0  0  0  0  0  0
  -38.6355   -1.9297   -1.0032 C   0  0  0  0  0  0  0  0  0  0  0  0
  -37.7465   -0.8380   -1.0119 N   0  0  0  0  0  0  0  0  0  0  0  0
  -37.1093   -0.6206    0.2910 C   0  0  0  0  0  0  0  0  0  0  0  0
  -36.5350    0.7983    0.3279 C   0  0  0  0  0  0  0  0  0  0  0  0
  -35.9455    1.2451   -1.0136 C   0  0  0  0  0  0  0  0  0  0  0  0
  -35.6017    0.0556   -1.9011 C   0  0  0  0  0  0  0  0  0  0  0  0
  -36.8246   -0.8316   -2.1637 C   0  0  0  0  0  0  0  0  0  0  0  0
  1  2  1  0
  2  3  1  0
  3  4  1  0
  4  5  1  0
  5  6  2  0
  6  7  1  0
  7  8  2  0
  8  9  1  0
  9 10  2  0
 10 11  1  0
 11 12  1  0
 12 13  1  0
 13 14  1  0
 14 15  1  0
 15 16  1  0
 10  5  1  0
 16 11  1  0
M  END
$$$$
