
     RDKit          3D

 19 20  0  0  0  0  0  0  0  0999 V2000
    1.5862   15.7827  -14.4291 N   0  0  0  0  0  0  0  0  0  0  0  0
    2.0932   15.2650  -15.6946 C   0  0  0  0  0  0  0  0  0  0  0  0
    2.1233   16.3439  -16.7668 C   0  0  0  0  0  0  0  0  0  0  0  0
    0.7312   16.7244  -17.2270 C   0  0  0  0  0  0  0  0  0  0  0  0
   -0.0256   15.9042  -17.7507 O   0  0  0  0  0  0  0  0  0  0  0  0
    0.3025   18.1514  -17.0372 C   0  0  0  0  0  0  0  0  0  0  0  0
   -0.1332   18.4585  -15.6314 C   0  0  0  0  0  0  0  0  0  0  0  0
    0.6603   18.9346  -14.8164 O   0  0  0  0  0  0  0  0  0  0  0  0
   -1.5634   18.1426  -15.2547 C   0  0  0  0  0  0  0  0  0  0  0  0
   -1.6554   16.8368  -14.4796 C   0  0  0  0  0  0  0  0  0  0  0  0
   -3.0757   16.4503  -14.2149 C   0  0  0  0  0  0  0  0  0  0  0  0
   -3.8223   16.7702  -13.0982 C   0  0  0  0  0  0  0  0  0  0  0  0
   -5.0726   16.2339  -13.2498 N   0  0  0  0  0  0  0  0  0  0  0  0
   -5.1644   15.5689  -14.4501 C   0  0  0  0  0  0  0  0  0  0  0  0
   -6.2413   14.8799  -15.0210 C   0  0  0  0  0  0  0  0  0  0  0  0
   -6.0421   14.2896  -16.2726 C   0  0  0  0  0  0  0  0  0  0  0  0
   -4.8149   14.3857  -16.9242 C   0  0  0  0  0  0  0  0  0  0  0  0
   -3.7487   15.0785  -16.3393 C   0  0  0  0  0  0  0  0  0  0  0  0
   -3.9238   15.6835  -15.0774 C   0  0  0  0  0  0  0  0  0  0  0  0
  1  2  1  0
  2  3  1  0
  3  4  1  0
  4  5  2  0
  4  6  1  0
  6  7  1  0
  7  8  2  0
  7  9  1  0
  9 10  1  0
 10 11  1  0
 11 12  2  0
 12 13  1  0
 13 14  1  0
 14 15  2  0
 15 16  1  0
 16 17  2  0
 17 18  1  0
 18 19  2  0
 19 11  1  0
 19 14  1  0
M  END
$$$$
