
     RDKit          3D

 19 20  0  0  0  0  0  0  0  0999 V2000
    5.0730   -1.8908    7.0058 N   0  0  0  0  0  0  0  0  0  0  0  0
    5.5800   -2.4084    5.7404 C   0  0  0  0  0  0  0  0  0  0  0  0
    5.6100   -1.3295    4.6682 C   0  0  0  0  0  0  0  0  0  0  0  0
    4.2180   -0.9490    4.2079 C   0  0  0  0  0  0  0  0  0  0  0  0
    3.4612   -1.7692    3.6842 O   0  0  0  0  0  0  0  0  0  0  0  0
    3.7893    0.4780    4.3978 C   0  0  0  0  0  0  0  0  0  0  0  0
    3.3536    0.7851    5.8035 C   0  0  0  0  0  0  0  0  0  0  0  0
    4.1471    1.2611    6.6185 O   0  0  0  0  0  0  0  0  0  0  0  0
    1.9234    0.4692    6.1802 C   0  0  0  0  0  0  0  0  0  0  0  0
    1.8313   -0.8366    6.9553 C   0  0  0  0  0  0  0  0  0  0  0  0
    0.4111   -1.2231    7.2200 C   0  0  0  0  0  0  0  0  0  0  0  0
   -0.3356   -0.9032    8.3367 C   0  0  0  0  0  0  0  0  0  0  0  0
   -1.5859   -1.4395    8.1851 N   0  0  0  0  0  0  0  0  0  0  0  0
   -1.6776   -2.1045    6.9849 C   0  0  0  0  0  0  0  0  0  0  0  0
   -2.7545   -2.7935    6.4140 C   0  0  0  0  0  0  0  0  0  0  0  0
   -2.5553   -3.3838    5.1624 C   0  0  0  0  0  0  0  0  0  0  0  0
   -1.3281   -3.2877    4.5107 C   0  0  0  0  0  0  0  0  0  0  0  0
   -0.2619   -2.5949    5.0957 C   0  0  0  0  0  0  0  0  0  0  0  0
   -0.4371   -1.9900    6.3575 C   0  0  0  0  0  0  0  0  0  0  0  0
  1  2  1  0
  2  3  1  0
  3  4  1  0
  4  5  2  0
  4  6  1  0
  6  7  1  0
  7  8  2  0
  7  9  1  0
  9 10  1  0
 10 11  1  0
 11 12  2  0
 12 13  1  0
 13 14  1  0
 14 15  2  0
 15 16  1  0
 16 17  2  0
 17 18  1  0
 18 19  2  0
 19 11  1  0
 19 14  1  0
M  END
$$$$
