
     RDKit          3D

 30 33  0  0  0  0  0  0  0  0999 V2000
    9.6366    6.4242   -9.1624 N   0  0  0  0  0  0  0  0  0  0  0  0
    9.3046    5.7355  -10.2982 C   0  0  0  0  0  0  0  0  0  0  0  0
    9.8352    5.9598  -11.3726 O   0  0  0  0  0  0  0  0  0  0  0  0
    8.1699    4.8036  -10.1593 C   0  0  0  0  0  0  0  0  0  0  0  0
    6.9062    5.4346  -10.1319 C   0  0  0  0  0  0  0  0  0  0  0  0
    5.7347    4.6808  -10.0885 C   0  0  0  0  0  0  0  0  0  0  0  0
    5.8260    3.2986  -10.0694 C   0  0  0  0  0  0  0  0  0  0  0  0
    4.3908    2.3430  -10.0101 Cl  0  0  0  0  0  0  0  0  0  0  0  0
    7.0762    2.6739  -10.0962 C   0  0  0  0  0  0  0  0  0  0  0  0
    8.2918    3.3990  -10.1519 C   0  0  0  0  0  0  0  0  0  0  0  0
    9.4652    2.6616  -10.1643 N   0  0  0  0  0  0  0  0  0  0  0  0
    9.6333    1.6358  -11.2045 C   0  0  0  0  0  0  0  0  0  0  0  0
   10.1738    0.3587  -10.5526 C   0  0  0  0  0  0  0  0  0  0  0  0
   11.4425    0.6330   -9.7479 C   0  0  0  0  0  0  0  0  0  0  0  0
   11.2437    1.8060   -8.7768 C   0  0  0  0  0  0  0  0  0  0  0  0
   10.7072    3.0578   -9.5026 C   0  0  0  0  0  0  0  0  0  0  0  0
   11.6510    3.4768  -10.4766 O   0  0  0  0  0  0  0  0  0  0  0  0
   12.6494    4.3587   -9.9727 C   0  0  0  0  0  0  0  0  0  0  0  0
   13.7322    4.5806  -11.0448 C   0  0  0  0  0  0  0  0  0  0  0  0
   14.5026    3.3899  -11.4490 N   0  0  0  0  0  0  0  0  0  0  0  0
   15.3382    2.8241  -10.3820 C   0  0  0  0  0  0  0  0  0  0  0  0
   16.5550    3.6424  -10.0216 C   0  0  0  0  0  0  0  0  0  0  0  0
   17.0956    4.4887  -10.9610 N   0  0  0  0  0  0  0  0  0  0  0  0
   18.2112    5.1826  -10.6438 C   0  0  0  0  0  0  0  0  0  0  0  0
   18.9087    5.1530   -9.4905 N   0  0  0  0  0  0  0  0  0  0  0  0
   18.3492    4.3042   -8.6178 C   0  0  0  0  0  0  0  0  0  0  0  0
   18.7971    4.0130   -7.3580 N   0  0  0  0  0  0  0  0  0  0  0  0
   17.9324    3.1037   -6.8138 C   0  0  0  0  0  0  0  0  0  0  0  0
   16.9651    2.7858   -7.6539 N   0  0  0  0  0  0  0  0  0  0  0  0
   17.2116    3.5327   -8.7868 C   0  0  0  0  0  0  0  0  0  0  0  0
  1  2  1  0
  2  3  2  0
  2  4  1  0
  4  5  2  0
  5  6  1  0
  6  7  2  0
  7  8  1  0
  7  9  1  0
  9 10  2  0
 10 11  1  0
 11 12  1  0
 12 13  1  0
 13 14  1  0
 14 15  1  0
 15 16  1  0
 16 17  1  0
 17 18  1  0
 18 19  1  0
 19 20  1  0
 20 21  1  0
 21 22  1  0
 22 23  2  0
 23 24  1  0
 24 25  2  0
 25 26  1  0
 26 27  1  0
 27 28  1  0
 28 29  2  0
 29 30  1  0
 10  4  1  0
 16 11  1  0
 30 22  1  0
 30 26  2  0
M  END
$$$$
