
     RDKit          3D

 27 29  0  0  0  0  0  0  0  0999 V2000
  -20.3137   34.7035   43.4923 N   0  0  0  0  0  0  0  0  0  0  0  0
  -20.0073   35.2323   44.8265 C   0  0  0  0  0  0  0  0  0  0  0  0
  -20.0773   34.1436   45.8918 C   0  0  0  0  0  0  0  0  0  0  0  0
  -21.5223   33.7658   46.1652 C   0  0  0  0  0  0  0  0  0  0  0  0
  -22.1806   34.4138   46.9881 O   0  0  0  0  0  0  0  0  0  0  0  0
  -22.0963   32.5471   45.4093 C   0  0  0  0  0  0  0  0  0  0  0  0
  -21.3687   32.2468   44.2142 O   0  0  0  0  0  0  0  0  0  0  0  0
  -23.5850   32.7282   45.0474 C   0  0  0  0  0  0  0  0  0  0  0  0
  -24.3836   31.4369   45.1925 C   0  0  0  0  0  0  0  0  0  0  0  0
  -23.9872   30.3112   44.4390 C   0  0  0  0  0  0  0  0  0  0  0  0
  -24.6776   29.1015   44.5267 C   0  0  0  0  0  0  0  0  0  0  0  0
  -25.7767   29.0115   45.3659 C   0  0  0  0  0  0  0  0  0  0  0  0
  -26.4789   27.8476   45.4962 O   0  0  0  0  0  0  0  0  0  0  0  0
  -26.1972   30.1117   46.1058 C   0  0  0  0  0  0  0  0  0  0  0  0
  -25.5246   31.3463   46.0253 C   0  0  0  0  0  0  0  0  0  0  0  0
  -25.9552   32.4595   46.7716 N   0  0  0  0  0  0  0  0  0  0  0  0
  -25.2745   32.5547   48.0752 C   0  0  0  0  0  0  0  0  0  0  0  0
  -25.8603   33.6891   48.9038 C   0  0  0  0  0  0  0  0  0  0  0  0
  -27.3399   33.4478   49.1945 C   0  0  0  0  0  0  0  0  0  0  0  0
  -28.0016   32.5716   48.1316 C   0  0  0  0  0  0  0  0  0  0  0  0
  -27.4044   32.8038   46.7182 C   0  0  0  0  0  0  0  0  0  0  0  0
  -27.7943   34.1584   46.2487 N   0  0  0  0  0  0  0  0  0  0  0  0
  -29.2093   34.2522   45.8505 C   0  0  0  0  0  0  0  0  0  0  0  0
  -29.4341   34.2801   44.3387 C   0  0  0  0  0  0  0  0  0  0  0  0
  -28.7053   35.4505   43.6840 C   0  0  0  0  0  0  0  0  0  0  0  0
  -27.4383   35.8330   44.4417 C   0  0  0  0  0  0  0  0  0  0  0  0
  -26.8731   34.6363   45.2062 C   0  0  0  0  0  0  0  0  0  0  0  0
  1  2  1  0
  2  3  1  0
  3  4  1  0
  4  5  2  0
  4  6  1  0
  6  7  1  0
  6  8  1  0
  8  9  1  0
  9 10  2  0
 10 11  1  0
 11 12  2  0
 12 13  1  0
 12 14  1  0
 14 15  2  0
 15 16  1  0
 16 17  1  0
 17 18  1  0
 18 19  1  0
 19 20  1  0
 20 21  1  0
 21 22  1  0
 22 23  1  0
 23 24  1  0
 24 25  1  0
 25 26  1  0
 26 27  1  0
 15  9  1  0
 21 16  1  0
 27 22  1  0
M  END
$$$$
