
     RDKit          3D

 28 30  0  0  0  0  0  0  0  0999 V2000
   -7.4992   -5.6134    9.0698 N   0  0  0  0  0  0  0  0  0  0  0  0
   -6.7869   -5.6134   10.2335 C   0  0  0  0  0  0  0  0  0  0  0  0
   -6.7950   -6.5394   11.0290 O   0  0  0  0  0  0  0  0  0  0  0  0
   -5.9372   -4.4302   10.4513 C   0  0  0  0  0  0  0  0  0  0  0  0
   -4.6427   -4.4784    9.9119 C   0  0  0  0  0  0  0  0  0  0  0  0
   -3.7683   -3.4096   10.1076 C   0  0  0  0  0  0  0  0  0  0  0  0
   -4.1886   -2.3069   10.8458 C   0  0  0  0  0  0  0  0  0  0  0  0
   -3.1075   -0.9948   11.1030 Cl  0  0  0  0  0  0  0  0  0  0  0  0
   -5.4758   -2.2620   11.3892 C   0  0  0  0  0  0  0  0  0  0  0  0
   -6.3842   -3.3216   11.1904 C   0  0  0  0  0  0  0  0  0  0  0  0
   -7.7536   -3.2723   11.8352 C   0  0  0  0  0  0  0  0  0  0  0  0
   -8.4562   -1.9372   11.6390 C   0  0  0  0  0  0  0  0  0  0  0  0
   -8.3977   -1.0623   12.4995 O   0  0  0  0  0  0  0  0  0  0  0  0
   -9.1239   -1.8438   10.4330 N   0  0  0  0  0  0  0  0  0  0  0  0
   -9.8001   -0.7168   10.0126 C   0  0  0  0  0  0  0  0  0  0  0  0
   -9.5068    0.4313   10.3301 O   0  0  0  0  0  0  0  0  0  0  0  0
  -10.8703   -0.9352    8.9868 C   0  0  0  0  0  0  0  0  0  0  0  0
  -11.2442    0.1902    8.2355 C   0  0  0  0  0  0  0  0  0  0  0  0
  -12.1856    0.0430    7.2375 C   0  0  0  0  0  0  0  0  0  0  0  0
  -12.7698   -1.1317    6.9419 N   0  0  0  0  0  0  0  0  0  0  0  0
  -12.4125   -2.1986    7.6952 C   0  0  0  0  0  0  0  0  0  0  0  0
  -11.4726   -2.1865    8.7342 C   0  0  0  0  0  0  0  0  0  0  0  0
  -11.1829   -3.3346    9.5239 N   0  0  0  0  0  0  0  0  0  0  0  0
  -12.0172   -3.3146   10.7620 C   0  0  0  0  0  0  0  0  0  0  0  0
  -11.8785   -4.6464   11.4961 C   0  0  0  0  0  0  0  0  0  0  0  0
  -12.4075   -5.8092   10.6535 C   0  0  0  0  0  0  0  0  0  0  0  0
  -12.3617   -5.5112    9.1555 C   0  0  0  0  0  0  0  0  0  0  0  0
  -11.1640   -4.6338    8.8025 C   0  0  0  0  0  0  0  0  0  0  0  0
  1  2  1  0
  2  3  2  0
  2  4  1  0
  4  5  2  0
  5  6  1  0
  6  7  2  0
  7  8  1  0
  7  9  1  0
  9 10  2  0
 10 11  1  0
 11 12  1  0
 12 13  2  0
 12 14  1  0
 14 15  1  0
 15 16  2  0
 15 17  1  0
 17 18  2  0
 18 19  1  0
 19 20  2  0
 20 21  1  0
 21 22  2  0
 22 23  1  0
 23 24  1  0
 24 25  1  0
 25 26  1  0
 26 27  1  0
 27 28  1  0
 10  4  1  0
 22 17  1  0
 28 23  1  0
M  END
$$$$
