
     RDKit          3D

 15 16  0  0  0  0  0  0  0  0999 V2000
   25.3143    4.4907   -3.4496 N   0  0  0  0  0  0  0  0  0  0  0  0
   24.1795    4.1331   -4.2923 C   0  0  0  0  0  0  0  0  0  0  0  0
   24.2512    2.6657   -4.7149 C   0  0  0  0  0  0  0  0  0  0  0  0
   23.1136    2.2722   -5.6552 C   0  0  0  0  0  0  0  0  0  0  0  0
   21.7798    2.2080   -4.9298 C   0  0  0  0  0  0  0  0  0  0  0  0
   21.5810    1.2886   -4.1329 O   0  0  0  0  0  0  0  0  0  0  0  0
   20.7666    3.2423   -5.1695 C   0  0  0  0  0  0  0  0  0  0  0  0
   20.8949    4.3603   -5.9773 C   0  0  0  0  0  0  0  0  0  0  0  0
   19.7281    5.0768   -5.9231 N   0  0  0  0  0  0  0  0  0  0  0  0
   18.8261    4.4551   -5.0956 C   0  0  0  0  0  0  0  0  0  0  0  0
   17.5213    4.8260   -4.7476 C   0  0  0  0  0  0  0  0  0  0  0  0
   16.8222    3.9943   -3.8689 C   0  0  0  0  0  0  0  0  0  0  0  0
   17.4074    2.8388   -3.3599 C   0  0  0  0  0  0  0  0  0  0  0  0
   18.7128    2.4841   -3.7190 C   0  0  0  0  0  0  0  0  0  0  0  0
   19.4448    3.3039   -4.6054 C   0  0  0  0  0  0  0  0  0  0  0  0
  1  2  1  0
  2  3  1  0
  3  4  1  0
  4  5  1  0
  5  6  2  0
  5  7  1  0
  7  8  2  0
  8  9  1  0
  9 10  1  0
 10 11  2  0
 11 12  1  0
 12 13  2  0
 13 14  1  0
 14 15  2  0
 15  7  1  0
 15 10  1  0
M  END
$$$$
