
     RDKit          3D

 26 28  0  0  0  0  0  0  0  0999 V2000
   -0.3395   -3.3813   22.5015 C   0  0  0  0  0  0  0  0  0  0  0  0
    0.2075   -2.3771   21.6267 N   0  0  0  0  0  0  0  0  0  0  0  0
    1.1781   -1.5046   22.0637 C   0  0  0  0  0  0  0  0  0  0  0  0
    1.6978   -1.5699   23.1675 O   0  0  0  0  0  0  0  0  0  0  0  0
    1.5755   -0.4762   21.0259 C   0  0  0  0  0  0  0  0  0  0  0  0
    0.8762    0.8505   21.2127 C   0  0  0  0  0  0  0  0  0  0  0  0
    1.4836    1.7919   22.0619 C   0  0  0  0  0  0  0  0  0  0  0  0
    0.9015    3.0381   22.2941 C   0  0  0  0  0  0  0  0  0  0  0  0
   -0.2992    3.3649   21.6772 C   0  0  0  0  0  0  0  0  0  0  0  0
   -0.9715    4.5491   21.8037 O   0  0  0  0  0  0  0  0  0  0  0  0
   -0.3538    5.5518   22.6011 C   0  0  0  0  0  0  0  0  0  0  0  0
   -0.9184    2.4283   20.8440 C   0  0  0  0  0  0  0  0  0  0  0  0
   -0.3639    1.1565   20.6074 C   0  0  0  0  0  0  0  0  0  0  0  0
   -0.9833    0.2106   19.7413 N   0  0  0  0  0  0  0  0  0  0  0  0
   -0.4990    0.4754   18.3588 C   0  0  0  0  0  0  0  0  0  0  0  0
   -1.0148   -0.5544   17.3605 C   0  0  0  0  0  0  0  0  0  0  0  0
   -0.4616   -0.7093   16.2557 O   0  0  0  0  0  0  0  0  0  0  0  0
   -2.3422   -1.2361   17.6373 C   0  0  0  0  0  0  0  0  0  0  0  0
   -2.8119   -1.1994   19.0897 C   0  0  0  0  0  0  0  0  0  0  0  0
   -2.4720    0.1432   19.7807 C   0  0  0  0  0  0  0  0  0  0  0  0
   -3.2171    0.3140   21.0286 N   0  0  0  0  0  0  0  0  0  0  0  0
   -4.6148    0.6905   20.8810 C   0  0  0  0  0  0  0  0  0  0  0  0
   -5.1520    1.1956   22.2189 C   0  0  0  0  0  0  0  0  0  0  0  0
   -4.9816    0.1794   23.3483 C   0  0  0  0  0  0  0  0  0  0  0  0
   -4.1463   -1.0242   22.9282 C   0  0  0  0  0  0  0  0  0  0  0  0
   -2.9180   -0.6205   22.1093 C   0  0  0  0  0  0  0  0  0  0  0  0
  1  2  1  0
  2  3  1  0
  3  4  2  0
  3  5  1  0
  5  6  1  0
  6  7  2  0
  7  8  1  0
  8  9  2  0
  9 10  1  0
 10 11  1  0
  9 12  1  0
 12 13  2  0
 13 14  1  0
 14 15  1  0
 15 16  1  0
 16 17  2  0
 16 18  1  0
 18 19  1  0
 19 20  1  0
 20 21  1  0
 21 22  1  0
 22 23  1  0
 23 24  1  0
 24 25  1  0
 25 26  1  0
 13  6  1  0
 20 14  1  0
 26 21  1  0
M  END
$$$$
