
     RDKit          3D

 26 28  0  0  0  0  0  0  0  0999 V2000
   -2.9578   -6.5331   -3.0000 C   0  0  0  0  0  0  0  0  0  0  0  0
   -3.1156   -5.5508   -4.0164 O   0  0  0  0  0  0  0  0  0  0  0  0
   -4.1564   -4.6724   -3.8802 C   0  0  0  0  0  0  0  0  0  0  0  0
   -4.8252   -4.4336   -2.6764 C   0  0  0  0  0  0  0  0  0  0  0  0
   -5.8725   -3.5109   -2.6175 C   0  0  0  0  0  0  0  0  0  0  0  0
   -6.2767   -2.8126   -3.7599 C   0  0  0  0  0  0  0  0  0  0  0  0
   -7.4188   -1.8302   -3.6949 C   0  0  0  0  0  0  0  0  0  0  0  0
   -8.6567   -2.4762   -3.2763 N   0  0  0  0  0  0  0  0  0  0  0  0
   -5.5956   -3.0442   -4.9622 C   0  0  0  0  0  0  0  0  0  0  0  0
   -4.5238   -3.9572   -5.0354 C   0  0  0  0  0  0  0  0  0  0  0  0
   -3.8352   -4.1640   -6.3722 C   0  0  0  0  0  0  0  0  0  0  0  0
   -4.3422   -5.3581   -6.9644 O   0  0  0  0  0  0  0  0  0  0  0  0
   -2.2867   -4.1462   -6.3329 C   0  0  0  0  0  0  0  0  0  0  0  0
   -1.6318   -4.9857   -6.9541 O   0  0  0  0  0  0  0  0  0  0  0  0
   -1.7134   -3.0951   -5.6393 N   0  0  0  0  0  0  0  0  0  0  0  0
   -0.2780   -3.0756   -5.4137 C   0  0  0  0  0  0  0  0  0  0  0  0
    0.2018   -1.7057   -4.9359 C   0  0  0  0  0  0  0  0  0  0  0  0
    1.6660   -1.6855   -4.6375 C   0  0  0  0  0  0  0  0  0  0  0  0
    2.6708   -1.2776   -5.4929 C   0  0  0  0  0  0  0  0  0  0  0  0
    3.8693   -1.4163   -4.8466 N   0  0  0  0  0  0  0  0  0  0  0  0
    3.6719   -1.9073   -3.5775 C   0  0  0  0  0  0  0  0  0  0  0  0
    4.5990   -2.2043   -2.5714 C   0  0  0  0  0  0  0  0  0  0  0  0
    4.1055   -2.7010   -1.3616 C   0  0  0  0  0  0  0  0  0  0  0  0
    2.7397   -2.8921   -1.1687 C   0  0  0  0  0  0  0  0  0  0  0  0
    1.8265   -2.5897   -2.1857 C   0  0  0  0  0  0  0  0  0  0  0  0
    2.2979   -2.0865   -3.4160 C   0  0  0  0  0  0  0  0  0  0  0  0
  1  2  1  0
  2  3  1  0
  3  4  2  0
  4  5  1  0
  5  6  2  0
  6  7  1  0
  7  8  1  0
  6  9  1  0
  9 10  2  0
 10 11  1  0
 11 12  1  0
 11 13  1  0
 13 14  2  0
 13 15  1  0
 15 16  1  0
 16 17  1  0
 17 18  1  0
 18 19  2  0
 19 20  1  0
 20 21  1  0
 21 22  2  0
 22 23  1  0
 23 24  2  0
 24 25  1  0
 25 26  2  0
 10  3  1  0
 26 18  1  0
 26 21  1  0
M  END
$$$$
