
     RDKit          3D

 19 20  0  0  0  0  0  0  0  0999 V2000
    5.2941    8.5771  -12.8443 C   0  0  0  0  0  0  0  0  0  0  0  0
    5.0374    7.6646  -13.9250 N   0  0  0  0  0  0  0  0  0  0  0  0
    6.0794    7.0746  -14.6086 C   0  0  0  0  0  0  0  0  0  0  0  0
    7.2579    7.3865  -14.4618 O   0  0  0  0  0  0  0  0  0  0  0  0
    5.6282    6.0039  -15.5811 C   0  0  0  0  0  0  0  0  0  0  0  0
    5.4712    4.6469  -14.9310 C   0  0  0  0  0  0  0  0  0  0  0  0
    6.5168    3.7173  -15.0775 C   0  0  0  0  0  0  0  0  0  0  0  0
    6.4319    2.4410  -14.5196 C   0  0  0  0  0  0  0  0  0  0  0  0
    5.2951    2.0715  -13.8110 C   0  0  0  0  0  0  0  0  0  0  0  0
    5.0679    0.8518  -13.2329 O   0  0  0  0  0  0  0  0  0  0  0  0
    6.1054   -0.1144  -13.3452 C   0  0  0  0  0  0  0  0  0  0  0  0
    4.2577    2.9971  -13.6493 C   0  0  0  0  0  0  0  0  0  0  0  0
    4.3305    4.3009  -14.1729 C   0  0  0  0  0  0  0  0  0  0  0  0
    3.2834    5.2416  -14.0035 N   0  0  0  0  0  0  0  0  0  0  0  0
    2.2443    5.0586  -15.0312 C   0  0  0  0  0  0  0  0  0  0  0  0
    1.4106    6.3402  -15.1166 C   0  0  0  0  0  0  0  0  0  0  0  0
    1.1952    7.0115  -13.7569 C   0  0  0  0  0  0  0  0  0  0  0  0
    1.3680    6.0260  -12.6088 C   0  0  0  0  0  0  0  0  0  0  0  0
    2.7426    5.3427  -12.6253 C   0  0  0  0  0  0  0  0  0  0  0  0
  1  2  1  0
  2  3  1  0
  3  4  2  0
  3  5  1  0
  5  6  1  0
  6  7  2  0
  7  8  1  0
  8  9  2  0
  9 10  1  0
 10 11  1  0
  9 12  1  0
 12 13  2  0
 13 14  1  0
 14 15  1  0
 15 16  1  0
 16 17  1  0
 17 18  1  0
 18 19  1  0
 13  6  1  0
 19 14  1  0
M  END
$$$$
