
     RDKit          3D

 27 29  0  0  0  0  0  0  0  0999 V2000
  -33.4272   56.0197  -43.2818 N   0  0  0  0  0  0  0  0  0  0  0  0
  -32.1025   56.2549  -42.8999 C   0  0  0  0  0  0  0  0  0  0  0  0
  -31.7379   57.4811  -42.3406 C   0  0  0  0  0  0  0  0  0  0  0  0
  -30.3974   57.7765  -42.0620 C   0  0  0  0  0  0  0  0  0  0  0  0
  -29.3990   56.8585  -42.3803 C   0  0  0  0  0  0  0  0  0  0  0  0
  -28.0590   57.0197  -42.1651 O   0  0  0  0  0  0  0  0  0  0  0  0
  -27.6545   58.2104  -41.4921 C   0  0  0  0  0  0  0  0  0  0  0  0
  -26.1406   58.2251  -41.2708 C   0  0  0  0  0  0  0  0  0  0  0  0
  -25.5879   59.1090  -40.6213 O   0  0  0  0  0  0  0  0  0  0  0  0
  -25.4709   57.1803  -41.8693 N   0  0  0  0  0  0  0  0  0  0  0  0
  -24.0395   56.9671  -41.7397 C   0  0  0  0  0  0  0  0  0  0  0  0
  -23.6911   55.8203  -40.7583 C   0  0  0  0  0  0  0  0  0  0  0  0
  -24.1699   56.1743  -39.3305 C   0  0  0  0  0  0  0  0  0  0  0  0
  -23.4843   55.3562  -38.2305 C   0  0  0  0  0  0  0  0  0  0  0  0
  -22.9476   54.0436  -38.7778 C   0  0  0  0  0  0  0  0  0  0  0  0
  -21.9892   54.2751  -39.9519 C   0  0  0  0  0  0  0  0  0  0  0  0
  -22.2459   55.5246  -40.6935 N   0  0  0  0  0  0  0  0  0  0  0  0
  -21.7776   55.2680  -42.0538 O   0  0  0  0  0  0  0  0  0  0  0  0
  -20.5855   56.0387  -42.2992 C   0  0  0  0  0  0  0  0  0  0  0  0
  -19.3520   55.1412  -42.1271 C   0  0  0  0  0  0  0  0  0  0  0  0
  -18.1427   55.6021  -42.9438 C   0  0  0  0  0  0  0  0  0  0  0  0
  -18.1643   57.0974  -43.2221 C   0  0  0  0  0  0  0  0  0  0  0  0
  -19.4296   57.5537  -43.9547 C   0  0  0  0  0  0  0  0  0  0  0  0
  -20.6540   56.6564  -43.7134 C   0  0  0  0  0  0  0  0  0  0  0  0
  -20.7359   55.6284  -44.7674 N   0  0  0  0  0  0  0  0  0  0  0  0
  -29.7534   55.6575  -42.9959 C   0  0  0  0  0  0  0  0  0  0  0  0
  -31.0928   55.3678  -43.2723 C   0  0  0  0  0  0  0  0  0  0  0  0
  1  2  1  0
  2  3  2  0
  3  4  1  0
  4  5  2  0
  5  6  1  0
  6  7  1  0
  7  8  1  0
  8  9  2  0
  8 10  1  0
 10 11  1  0
 11 12  1  0
 12 13  1  0
 13 14  1  0
 14 15  1  0
 15 16  1  0
 16 17  1  0
 17 18  1  0
 18 19  1  0
 19 20  1  0
 20 21  1  0
 21 22  1  0
 22 23  1  0
 23 24  1  0
 24 25  1  0
  5 26  1  0
 26 27  2  0
 27  2  1  0
 17 12  1  0
 24 19  1  0
M  END
$$$$
