
     RDKit          3D

 22 24  0  0  0  0  0  0  0  0999 V2000
  -19.1140  -35.2045   20.3163 N   0  0  0  0  0  0  0  0  0  0  0  0
  -17.9595  -36.0952   20.4200 C   0  0  0  0  0  0  0  0  0  0  0  0
  -17.9714  -36.8994   21.7040 C   0  0  0  0  0  0  0  0  0  0  0  0
  -18.8962  -37.9636   21.7922 C   0  0  0  0  0  0  0  0  0  0  0  0
  -18.9500  -38.7788   22.9177 C   0  0  0  0  0  0  0  0  0  0  0  0
  -18.0823  -38.5371   23.9667 C   0  0  0  0  0  0  0  0  0  0  0  0
  -18.1681  -39.3509   25.0586 O   0  0  0  0  0  0  0  0  0  0  0  0
  -17.1577  -37.4951   23.9055 C   0  0  0  0  0  0  0  0  0  0  0  0
  -17.0766  -36.6545   22.7778 C   0  0  0  0  0  0  0  0  0  0  0  0
  -16.1523  -35.6027   22.7207 N   0  0  0  0  0  0  0  0  0  0  0  0
  -16.7459  -34.2566   22.8498 C   0  0  0  0  0  0  0  0  0  0  0  0
  -16.6977  -33.7887   24.2946 C   0  0  0  0  0  0  0  0  0  0  0  0
  -17.4958  -32.9742   24.7598 O   0  0  0  0  0  0  0  0  0  0  0  0
  -15.5893  -34.3592   25.1422 C   0  0  0  0  0  0  0  0  0  0  0  0
  -14.4118  -34.7144   24.2466 C   0  0  0  0  0  0  0  0  0  0  0  0
  -14.7523  -35.7920   23.1721 C   0  0  0  0  0  0  0  0  0  0  0  0
  -13.6896  -35.7850   22.1349 N   0  0  0  0  0  0  0  0  0  0  0  0
  -13.9906  -36.7035   21.0226 C   0  0  0  0  0  0  0  0  0  0  0  0
  -13.8436  -38.1857   21.3789 C   0  0  0  0  0  0  0  0  0  0  0  0
  -12.4580  -38.4828   21.9422 C   0  0  0  0  0  0  0  0  0  0  0  0
  -12.0972  -37.5093   23.0596 C   0  0  0  0  0  0  0  0  0  0  0  0
  -12.3287  -36.0588   22.6270 C   0  0  0  0  0  0  0  0  0  0  0  0
  1  2  1  0
  2  3  1  0
  3  4  2  0
  4  5  1  0
  5  6  2  0
  6  7  1  0
  6  8  1  0
  8  9  2  0
  9 10  1  0
 10 11  1  0
 11 12  1  0
 12 13  2  0
 12 14  1  0
 14 15  1  0
 15 16  1  0
 16 17  1  0
 17 18  1  0
 18 19  1  0
 19 20  1  0
 20 21  1  0
 21 22  1  0
  9  3  1  0
 16 10  1  0
 22 17  1  0
M  END
$$$$
