
     RDKit          3D

 29 32  0  0  0  0  0  0  0  0999 V2000
    1.6493   14.3382   18.1986 N   0  0  0  0  0  0  0  0  0  0  0  0
    0.9960   13.6013   19.2762 C   0  0  0  0  0  0  0  0  0  0  0  0
    0.0409   14.4721   20.0609 C   0  0  0  0  0  0  0  0  0  0  0  0
    0.5957   15.2264   21.1232 C   0  0  0  0  0  0  0  0  0  0  0  0
   -0.1750   16.1195   21.8685 C   0  0  0  0  0  0  0  0  0  0  0  0
   -1.5118   16.2806   21.5490 C   0  0  0  0  0  0  0  0  0  0  0  0
   -2.3087   17.1501   22.2344 O   0  0  0  0  0  0  0  0  0  0  0  0
   -2.0803   15.5544   20.5097 C   0  0  0  0  0  0  0  0  0  0  0  0
   -1.3307   14.6240   19.7600 C   0  0  0  0  0  0  0  0  0  0  0  0
   -2.0192   13.9647   18.7331 N   0  0  0  0  0  0  0  0  0  0  0  0
   -1.8735   14.6380   17.4283 C   0  0  0  0  0  0  0  0  0  0  0  0
   -2.7847   14.0077   16.3873 C   0  0  0  0  0  0  0  0  0  0  0  0
   -3.4438   14.6802   15.5883 O   0  0  0  0  0  0  0  0  0  0  0  0
   -2.8011   12.4954   16.3211 C   0  0  0  0  0  0  0  0  0  0  0  0
   -1.9076   11.8911   17.3992 C   0  0  0  0  0  0  0  0  0  0  0  0
   -2.1710   12.5003   18.7920 C   0  0  0  0  0  0  0  0  0  0  0  0
   -3.5996   12.1467   19.2621 C   0  0  0  0  0  0  0  0  0  0  0  0
   -3.8118   12.3100   20.7723 C   0  0  0  0  0  0  0  0  0  0  0  0
   -5.1936   11.8357   21.2456 C   0  0  0  0  0  0  0  0  0  0  0  0
   -6.2489   12.7788   20.9074 N   0  0  0  0  0  0  0  0  0  0  0  0
   -6.8024   12.6753   19.6279 C   0  0  0  0  0  0  0  0  0  0  0  0
   -6.9849   11.4631   19.0352 N   0  0  0  0  0  0  0  0  0  0  0  0
   -7.5061   11.4221   17.7875 C   0  0  0  0  0  0  0  0  0  0  0  0
   -7.8654   12.4511   16.9912 N   0  0  0  0  0  0  0  0  0  0  0  0
   -7.6503   13.6191   17.6127 C   0  0  0  0  0  0  0  0  0  0  0  0
   -7.8565   14.8715   17.1069 N   0  0  0  0  0  0  0  0  0  0  0  0
   -7.4915   15.7710   18.0730 C   0  0  0  0  0  0  0  0  0  0  0  0
   -7.0703   15.1745   19.1692 N   0  0  0  0  0  0  0  0  0  0  0  0
   -7.1553   13.8229   18.8887 C   0  0  0  0  0  0  0  0  0  0  0  0
  1  2  1  0
  2  3  1  0
  3  4  2  0
  4  5  1  0
  5  6  2  0
  6  7  1  0
  6  8  1  0
  8  9  2  0
  9 10  1  0
 10 11  1  0
 11 12  1  0
 12 13  2  0
 12 14  1  0
 14 15  1  0
 15 16  1  0
 16 17  1  0
 17 18  1  0
 18 19  1  0
 19 20  1  0
 20 21  1  0
 21 22  2  0
 22 23  1  0
 23 24  2  0
 24 25  1  0
 25 26  1  0
 26 27  1  0
 27 28  2  0
 28 29  1  0
  9  3  1  0
 16 10  1  0
 29 21  1  0
 29 25  2  0
M  END
$$$$
