
     RDKit          3D

 28 30  0  0  0  0  0  0  0  0999 V2000
  -11.2935   -0.0031   23.0310 N   0  0  0  0  0  0  0  0  0  0  0  0
  -10.3477    0.8733   23.4738 C   0  0  0  0  0  0  0  0  0  0  0  0
   -9.1691    0.5361   23.5149 O   0  0  0  0  0  0  0  0  0  0  0  0
  -10.7838    2.2453   23.8887 C   0  0  0  0  0  0  0  0  0  0  0  0
   -9.7533    3.1853   24.0785 C   0  0  0  0  0  0  0  0  0  0  0  0
  -10.0402    4.4977   24.4538 C   0  0  0  0  0  0  0  0  0  0  0  0
  -11.3624    4.8787   24.6436 C   0  0  0  0  0  0  0  0  0  0  0  0
  -11.7256    6.4994   25.0956 Cl  0  0  0  0  0  0  0  0  0  0  0  0
  -12.4014    3.9600   24.4715 C   0  0  0  0  0  0  0  0  0  0  0  0
  -12.1252    2.6338   24.1011 C   0  0  0  0  0  0  0  0  0  0  0  0
  -13.0991    1.6827   23.9248 O   0  0  0  0  0  0  0  0  0  0  0  0
  -14.4209    1.9880   24.3586 C   0  0  0  0  0  0  0  0  0  0  0  0
  -15.1690    0.7520   24.2006 N   0  0  0  0  0  0  0  0  0  0  0  0
  -16.8440    0.8846   24.3684 S   0  0  0  0  0  0  0  0  0  0  0  0
  -17.2755   -0.4424   24.7501 O   0  0  0  0  0  0  0  0  0  0  0  0
  -17.0609    2.0511   25.1962 O   0  0  0  0  0  0  0  0  0  0  0  0
  -17.4214    1.1859   22.7216 C   0  0  0  0  0  0  0  0  0  0  0  0
  -16.5596    0.9634   21.6407 C   0  0  0  0  0  0  0  0  0  0  0  0
  -17.0158    1.2573   20.3708 C   0  0  0  0  0  0  0  0  0  0  0  0
  -18.2430    1.7465   20.1184 N   0  0  0  0  0  0  0  0  0  0  0  0
  -19.0565    1.9323   21.1862 C   0  0  0  0  0  0  0  0  0  0  0  0
  -18.7194    1.6716   22.5179 C   0  0  0  0  0  0  0  0  0  0  0  0
  -19.6328    1.8336   23.5651 N   0  0  0  0  0  0  0  0  0  0  0  0
  -20.2395    3.1702   23.7085 C   0  0  0  0  0  0  0  0  0  0  0  0
  -21.7516    3.1266   23.5091 C   0  0  0  0  0  0  0  0  0  0  0  0
  -22.4252    2.1584   24.4834 C   0  0  0  0  0  0  0  0  0  0  0  0
  -21.5414    0.9603   24.8348 C   0  0  0  0  0  0  0  0  0  0  0  0
  -20.5268    0.6727   23.7332 C   0  0  0  0  0  0  0  0  0  0  0  0
  1  2  1  0
  2  3  2  0
  2  4  1  0
  4  5  2  0
  5  6  1  0
  6  7  2  0
  7  8  1  0
  7  9  1  0
  9 10  2  0
 10 11  1  0
 11 12  1  0
 12 13  1  0
 13 14  1  0
 14 15  2  0
 14 16  2  0
 14 17  1  0
 17 18  2  0
 18 19  1  0
 19 20  2  0
 20 21  1  0
 21 22  2  0
 22 23  1  0
 23 24  1  0
 24 25  1  0
 25 26  1  0
 26 27  1  0
 27 28  1  0
 10  4  1  0
 22 17  1  0
 28 23  1  0
M  END
$$$$
