
     RDKit          3D

 16 17  0  0  0  0  0  0  0  0999 V2000
   11.0694    9.5259   -4.0590 N   0  0  0  0  0  0  0  0  0  0  0  0
   11.6309    8.4351   -3.2739 C   0  0  0  0  0  0  0  0  0  0  0  0
   10.5346    7.7474   -2.4634 C   0  0  0  0  0  0  0  0  0  0  0  0
   11.1171    6.6653   -1.5633 C   0  0  0  0  0  0  0  0  0  0  0  0
   10.0496    5.7767   -0.9552 C   0  0  0  0  0  0  0  0  0  0  0  0
   10.0009    4.5771   -1.2422 O   0  0  0  0  0  0  0  0  0  0  0  0
    9.0738    6.4010    0.0256 C   0  0  0  0  0  0  0  0  0  0  0  0
    7.7681    6.7445   -0.6124 C   0  0  0  0  0  0  0  0  0  0  0  0
    6.9012    5.8585   -1.2245 C   0  0  0  0  0  0  0  0  0  0  0  0
    5.8163    6.5549   -1.6791 N   0  0  0  0  0  0  0  0  0  0  0  0
    5.9438    7.8876   -1.3678 C   0  0  0  0  0  0  0  0  0  0  0  0
    5.0815    8.9590   -1.6306 C   0  0  0  0  0  0  0  0  0  0  0  0
    5.4694   10.2270   -1.1898 C   0  0  0  0  0  0  0  0  0  0  0  0
    6.6712   10.4125   -0.5121 C   0  0  0  0  0  0  0  0  0  0  0  0
    7.5208    9.3297   -0.2565 C   0  0  0  0  0  0  0  0  0  0  0  0
    7.1563    8.0386   -0.6931 C   0  0  0  0  0  0  0  0  0  0  0  0
  1  2  1  0
  2  3  1  0
  3  4  1  0
  4  5  1  0
  5  6  2  0
  5  7  1  0
  7  8  1  0
  8  9  2  0
  9 10  1  0
 10 11  1  0
 11 12  2  0
 12 13  1  0
 13 14  2  0
 14 15  1  0
 15 16  2  0
 16  8  1  0
 16 11  1  0
M  END
$$$$
