
     RDKit          3D

 15 16  0  0  0  0  0  0  0  0999 V2000
   21.0238   12.0015    8.7252 N   0  0  0  0  0  0  0  0  0  0  0  0
   19.8890   11.6439    7.8825 C   0  0  0  0  0  0  0  0  0  0  0  0
   19.9608   10.1765    7.4599 C   0  0  0  0  0  0  0  0  0  0  0  0
   18.8232    9.7830    6.5195 C   0  0  0  0  0  0  0  0  0  0  0  0
   17.4893    9.7189    7.2450 C   0  0  0  0  0  0  0  0  0  0  0  0
   17.2906    8.7994    8.0419 O   0  0  0  0  0  0  0  0  0  0  0  0
   16.4762   10.7531    7.0052 C   0  0  0  0  0  0  0  0  0  0  0  0
   16.6045   11.8712    6.1974 C   0  0  0  0  0  0  0  0  0  0  0  0
   15.4377   12.5876    6.2517 N   0  0  0  0  0  0  0  0  0  0  0  0
   14.5357   11.9659    7.0791 C   0  0  0  0  0  0  0  0  0  0  0  0
   13.2309   12.3369    7.4272 C   0  0  0  0  0  0  0  0  0  0  0  0
   12.5318   11.5051    8.3059 C   0  0  0  0  0  0  0  0  0  0  0  0
   13.1170   10.3496    8.8148 C   0  0  0  0  0  0  0  0  0  0  0  0
   14.4224    9.9949    8.4558 C   0  0  0  0  0  0  0  0  0  0  0  0
   15.1544   10.8148    7.5693 C   0  0  0  0  0  0  0  0  0  0  0  0
  1  2  1  0
  2  3  1  0
  3  4  1  0
  4  5  1  0
  5  6  2  0
  5  7  1  0
  7  8  2  0
  8  9  1  0
  9 10  1  0
 10 11  2  0
 11 12  1  0
 12 13  2  0
 13 14  1  0
 14 15  2  0
 15  7  1  0
 15 10  1  0
M  END
$$$$
