
     RDKit          3D

 29 32  0  0  0  0  0  0  0  0999 V2000
  -15.7031   19.6588   -6.9542 N   0  0  0  0  0  0  0  0  0  0  0  0
  -17.0615   19.7560   -6.9729 C   0  0  0  0  0  0  0  0  0  0  0  0
  -17.7016   19.9199   -8.0029 O   0  0  0  0  0  0  0  0  0  0  0  0
  -17.7421   19.5675   -5.6768 C   0  0  0  0  0  0  0  0  0  0  0  0
  -18.3562   18.3050   -5.5414 C   0  0  0  0  0  0  0  0  0  0  0  0
  -19.0036   17.9641   -4.3625 C   0  0  0  0  0  0  0  0  0  0  0  0
  -19.0388   18.8898   -3.3355 C   0  0  0  0  0  0  0  0  0  0  0  0
  -19.6668   18.5798   -2.1935 F   0  0  0  0  0  0  0  0  0  0  0  0
  -18.4446   20.1481   -3.4663 C   0  0  0  0  0  0  0  0  0  0  0  0
  -17.7734   20.5423   -4.6428 C   0  0  0  0  0  0  0  0  0  0  0  0
  -17.2013   21.8328   -4.7689 N   0  0  0  0  0  0  0  0  0  0  0  0
  -17.7131   22.5828   -5.9445 C   0  0  0  0  0  0  0  0  0  0  0  0
  -17.5147   24.0914   -5.8235 C   0  0  0  0  0  0  0  0  0  0  0  0
  -18.1269   24.6530   -4.5452 C   0  0  0  0  0  0  0  0  0  0  0  0
  -18.0318   23.6816   -3.3675 C   0  0  0  0  0  0  0  0  0  0  0  0
  -16.9337   22.6296   -3.5595 C   0  0  0  0  0  0  0  0  0  0  0  0
  -15.6810   23.3174   -3.6604 O   0  0  0  0  0  0  0  0  0  0  0  0
  -14.5520   22.4501   -3.5429 C   0  0  0  0  0  0  0  0  0  0  0  0
  -13.9475   22.1476   -4.9171 C   0  0  0  0  0  0  0  0  0  0  0  0
  -12.7552   21.3102   -4.8460 N   0  0  0  0  0  0  0  0  0  0  0  0
  -12.9063   20.0098   -4.3645 C   0  0  0  0  0  0  0  0  0  0  0  0
  -14.0698   19.3243   -4.5408 N   0  0  0  0  0  0  0  0  0  0  0  0
  -14.1655   18.0660   -4.0468 C   0  0  0  0  0  0  0  0  0  0  0  0
  -13.2367   17.3558   -3.3773 N   0  0  0  0  0  0  0  0  0  0  0  0
  -12.1136   18.0713   -3.2331 C   0  0  0  0  0  0  0  0  0  0  0  0
  -10.9646   17.6807   -2.6094 N   0  0  0  0  0  0  0  0  0  0  0  0
  -10.0817   18.7244   -2.6798 C   0  0  0  0  0  0  0  0  0  0  0  0
  -10.5939   19.7604   -3.3111 N   0  0  0  0  0  0  0  0  0  0  0  0
  -11.8650   19.3582   -3.6746 C   0  0  0  0  0  0  0  0  0  0  0  0
  1  2  1  0
  2  3  2  0
  2  4  1  0
  4  5  2  0
  5  6  1  0
  6  7  2  0
  7  8  1  0
  7  9  1  0
  9 10  2  0
 10 11  1  0
 11 12  1  0
 12 13  1  0
 13 14  1  0
 14 15  1  0
 15 16  1  0
 16 17  1  0
 17 18  1  0
 18 19  1  0
 19 20  1  0
 20 21  1  0
 21 22  2  0
 22 23  1  0
 23 24  2  0
 24 25  1  0
 25 26  1  0
 26 27  1  0
 27 28  2  0
 28 29  1  0
 10  4  1  0
 16 11  1  0
 29 21  1  0
 29 25  2  0
M  END
$$$$
