
     RDKit          3D

 18 19  0  0  0  0  0  0  0  0999 V2000
   12.6889   -7.2669  -37.5906 N   0  0  0  0  0  0  0  0  0  0  0  0
   11.8683   -8.3091  -38.1968 C   0  0  0  0  0  0  0  0  0  0  0  0
   11.9710   -9.6006  -37.3838 C   0  0  0  0  0  0  0  0  0  0  0  0
   11.2241  -10.7638  -38.0355 C   0  0  0  0  0  0  0  0  0  0  0  0
    9.7092  -10.6513  -37.9638 C   0  0  0  0  0  0  0  0  0  0  0  0
    9.1405   -9.7421  -37.3608 O   0  0  0  0  0  0  0  0  0  0  0  0
    8.9341  -11.7496  -38.6791 C   0  0  0  0  0  0  0  0  0  0  0  0
    7.4206  -11.5827  -38.5610 C   0  0  0  0  0  0  0  0  0  0  0  0
    6.8921  -10.4422  -39.4360 C   0  0  0  0  0  0  0  0  0  0  0  0
    5.4637  -10.1536  -39.1329 C   0  0  0  0  0  0  0  0  0  0  0  0
    4.4090  -10.6307  -39.7599 N   0  0  0  0  0  0  0  0  0  0  0  0
    3.3232  -10.0849  -39.1185 C   0  0  0  0  0  0  0  0  0  0  0  0
    1.9540  -10.2520  -39.3710 C   0  0  0  0  0  0  0  0  0  0  0  0
    1.0334   -9.5759  -38.5597 C   0  0  0  0  0  0  0  0  0  0  0  0
    1.4676   -8.7510  -37.5187 C   0  0  0  0  0  0  0  0  0  0  0  0
    2.8302   -8.5719  -37.2515 C   0  0  0  0  0  0  0  0  0  0  0  0
    3.7249   -9.2572  -38.0760 C   0  0  0  0  0  0  0  0  0  0  0  0
    5.0937   -9.3177  -38.1068 N   0  0  0  0  0  0  0  0  0  0  0  0
  1  2  1  0
  2  3  1  0
  3  4  1  0
  4  5  1  0
  5  6  2  0
  5  7  1  0
  7  8  1  0
  8  9  1  0
  9 10  1  0
 10 11  2  0
 11 12  1  0
 12 13  2  0
 13 14  1  0
 14 15  2  0
 15 16  1  0
 16 17  2  0
 17 18  1  0
 18 10  1  0
 17 12  1  0
M  END
$$$$
