
     RDKit          3D

 29 31  0  0  0  0  0  0  0  0999 V2000
    0.2920  -12.3857   -6.9410 N   0  0  0  0  0  0  0  0  0  0  0  0
   -0.9984  -12.0279   -6.6495 C   0  0  0  0  0  0  0  0  0  0  0  0
   -1.9321  -12.7111   -7.0455 O   0  0  0  0  0  0  0  0  0  0  0  0
   -1.1999  -10.7602   -5.8821 C   0  0  0  0  0  0  0  0  0  0  0  0
   -0.2199  -10.4065   -4.9321 C   0  0  0  0  0  0  0  0  0  0  0  0
   -0.3398   -9.2364   -4.1799 C   0  0  0  0  0  0  0  0  0  0  0  0
   -1.4467   -8.4120   -4.3599 C   0  0  0  0  0  0  0  0  0  0  0  0
   -1.6051   -6.9671   -3.4341 Cl  0  0  0  0  0  0  0  0  0  0  0  0
   -2.4343   -8.7553   -5.2831 C   0  0  0  0  0  0  0  0  0  0  0  0
   -2.3345   -9.9348   -6.0628 C   0  0  0  0  0  0  0  0  0  0  0  0
   -3.4845  -10.2196   -7.0161 C   0  0  0  0  0  0  0  0  0  0  0  0
   -3.0185  -10.7075   -8.2792 O   0  0  0  0  0  0  0  0  0  0  0  0
   -4.5482  -11.1688   -6.4033 C   0  0  0  0  0  0  0  0  0  0  0  0
   -5.6694  -11.3805   -7.3415 N   0  0  0  0  0  0  0  0  0  0  0  0
   -6.4355  -12.5887   -7.0140 C   0  0  0  0  0  0  0  0  0  0  0  0
   -7.1787  -12.5331   -5.6930 C   0  0  0  0  0  0  0  0  0  0  0  0
   -6.6510  -13.3432   -4.6509 C   0  0  0  0  0  0  0  0  0  0  0  0
   -7.2284  -13.3847   -3.3827 C   0  0  0  0  0  0  0  0  0  0  0  0
   -8.3507  -12.6182   -3.1313 C   0  0  0  0  0  0  0  0  0  0  0  0
   -8.9109  -12.6921   -1.8946 O   0  0  0  0  0  0  0  0  0  0  0  0
   -8.8826  -11.8000   -4.1248 C   0  0  0  0  0  0  0  0  0  0  0  0
   -8.3150  -11.7353   -5.4219 C   0  0  0  0  0  0  0  0  0  0  0  0
   -8.9437  -10.8322   -6.2934 N   0  0  0  0  0  0  0  0  0  0  0  0
   -9.2168  -11.2324   -7.6728 C   0  0  0  0  0  0  0  0  0  0  0  0
  -10.3257  -10.3294   -8.2080 C   0  0  0  0  0  0  0  0  0  0  0  0
   -9.8835   -8.8716   -8.1927 C   0  0  0  0  0  0  0  0  0  0  0  0
   -9.3553   -8.4707   -6.8283 C   0  0  0  0  0  0  0  0  0  0  0  0
   -9.5784   -7.3513   -6.3609 O   0  0  0  0  0  0  0  0  0  0  0  0
   -8.4193   -9.4544   -6.1433 C   0  0  0  0  0  0  0  0  0  0  0  0
  1  2  1  0
  2  3  2  0
  2  4  1  0
  4  5  2  0
  5  6  1  0
  6  7  2  0
  7  8  1  0
  7  9  1  0
  9 10  2  0
 10 11  1  0
 11 12  1  0
 11 13  1  0
 13 14  1  0
 14 15  1  0
 15 16  1  0
 16 17  2  0
 17 18  1  0
 18 19  2  0
 19 20  1  0
 19 21  1  0
 21 22  2  0
 22 23  1  0
 23 24  1  0
 24 25  1  0
 25 26  1  0
 26 27  1  0
 27 28  2  0
 27 29  1  0
 10  4  1  0
 22 16  1  0
 29 23  1  0
M  END
$$$$
