
     RDKit          3D

 28 31  0  0  0  0  0  0  0  0999 V2000
  -21.4574    4.9030    5.7240 N   0  0  0  0  0  0  0  0  0  0  0  0
  -20.4431    3.6073    6.1155 S   0  0  0  0  0  0  0  0  0  0  0  0
  -20.8534    2.5696    5.1964 O   0  0  0  0  0  0  0  0  0  0  0  0
  -19.1241    4.1944    6.1136 O   0  0  0  0  0  0  0  0  0  0  0  0
  -20.9003    3.1570    7.7616 C   0  0  0  0  0  0  0  0  0  0  0  0
  -21.8822    3.9115    8.4183 C   0  0  0  0  0  0  0  0  0  0  0  0
  -22.2320    3.5570    9.7053 C   0  0  0  0  0  0  0  0  0  0  0  0
  -21.6849    2.5193   10.3604 N   0  0  0  0  0  0  0  0  0  0  0  0
  -20.7371    1.8117    9.6968 C   0  0  0  0  0  0  0  0  0  0  0  0
  -20.2759    2.0711    8.4000 C   0  0  0  0  0  0  0  0  0  0  0  0
  -19.2918    1.2803    7.7768 N   0  0  0  0  0  0  0  0  0  0  0  0
  -19.8866    0.2048    6.9430 C   0  0  0  0  0  0  0  0  0  0  0  0
  -19.6602   -1.1686    7.5686 C   0  0  0  0  0  0  0  0  0  0  0  0
  -18.1720   -1.4800    7.7195 C   0  0  0  0  0  0  0  0  0  0  0  0
  -17.3223   -0.2164    7.8625 C   0  0  0  0  0  0  0  0  0  0  0  0
  -18.0992    0.8977    8.5836 C   0  0  0  0  0  0  0  0  0  0  0  0
  -17.2108    2.1223    8.8844 C   0  0  0  0  0  0  0  0  0  0  0  0
  -16.4619    2.6743    7.6724 C   0  0  0  0  0  0  0  0  0  0  0  0
  -15.8837    3.9945    7.9648 N   0  0  0  0  0  0  0  0  0  0  0  0
  -14.6187    4.0196    8.4391 C   0  0  0  0  0  0  0  0  0  0  0  0
  -13.5317    4.3637    7.7957 N   0  0  0  0  0  0  0  0  0  0  0  0
  -12.5185    4.2599    8.7192 C   0  0  0  0  0  0  0  0  0  0  0  0
  -11.1433    4.4945    8.5728 C   0  0  0  0  0  0  0  0  0  0  0  0
  -10.3111    4.3268    9.6873 C   0  0  0  0  0  0  0  0  0  0  0  0
  -10.8372    3.9368   10.9223 C   0  0  0  0  0  0  0  0  0  0  0  0
  -12.2066    3.6977   11.0885 C   0  0  0  0  0  0  0  0  0  0  0  0
  -13.0106    3.8678    9.9597 C   0  0  0  0  0  0  0  0  0  0  0  0
  -14.3577    3.7337    9.7507 N   0  0  0  0  0  0  0  0  0  0  0  0
  1  2  1  0
  2  3  2  0
  2  4  2  0
  2  5  1  0
  5  6  2  0
  6  7  1  0
  7  8  2  0
  8  9  1  0
  9 10  2  0
 10 11  1  0
 11 12  1  0
 12 13  1  0
 13 14  1  0
 14 15  1  0
 15 16  1  0
 16 17  1  0
 17 18  1  0
 18 19  1  0
 19 20  1  0
 20 21  2  0
 21 22  1  0
 22 23  2  0
 23 24  1  0
 24 25  2  0
 25 26  1  0
 26 27  2  0
 27 28  1  0
 10  5  1  0
 16 11  1  0
 28 20  1  0
 27 22  1  0
M  END
$$$$
