
     RDKit          3D

 16 17  0  0  0  0  0  0  0  0999 V2000
   -9.9126   91.8460   11.6951 N   0  0  0  0  0  0  0  0  0  0  0  0
   -8.5570   91.6159   11.2074 C   0  0  0  0  0  0  0  0  0  0  0  0
   -8.1053   90.1607   11.3403 C   0  0  0  0  0  0  0  0  0  0  0  0
   -7.9628   89.7062   12.7952 C   0  0  0  0  0  0  0  0  0  0  0  0
   -7.3783   88.3147   12.8942 C   0  0  0  0  0  0  0  0  0  0  0  0
   -8.2425   87.2100   12.9025 C   0  0  0  0  0  0  0  0  0  0  0  0
   -7.7065   85.9350   12.9902 C   0  0  0  0  0  0  0  0  0  0  0  0
   -6.3864   85.6812   13.0691 N   0  0  0  0  0  0  0  0  0  0  0  0
   -5.5698   86.7619   13.0515 C   0  0  0  0  0  0  0  0  0  0  0  0
   -5.9909   88.0951   12.9550 C   0  0  0  0  0  0  0  0  0  0  0  0
   -5.1020   89.1868   12.9463 N   0  0  0  0  0  0  0  0  0  0  0  0
   -4.4647   89.4042   14.2492 C   0  0  0  0  0  0  0  0  0  0  0  0
   -3.8904   90.8231   14.2861 C   0  0  0  0  0  0  0  0  0  0  0  0
   -3.3009   91.2699   12.9446 C   0  0  0  0  0  0  0  0  0  0  0  0
   -2.9571   90.0804   12.0571 C   0  0  0  0  0  0  0  0  0  0  0  0
   -4.1800   89.1932   11.7946 C   0  0  0  0  0  0  0  0  0  0  0  0
  1  2  1  0
  2  3  1  0
  3  4  1  0
  4  5  1  0
  5  6  2  0
  6  7  1  0
  7  8  2  0
  8  9  1  0
  9 10  2  0
 10 11  1  0
 11 12  1  0
 12 13  1  0
 13 14  1  0
 14 15  1  0
 15 16  1  0
 10  5  1  0
 16 11  1  0
M  END
$$$$
