
     RDKit          3D

 18 19  0  0  0  0  0  0  0  0999 V2000
   16.1737   15.4313   -8.3892 N   0  0  0  0  0  0  0  0  0  0  0  0
   15.3530   14.3891   -8.9955 C   0  0  0  0  0  0  0  0  0  0  0  0
   15.4557   13.0976   -8.1825 C   0  0  0  0  0  0  0  0  0  0  0  0
   14.7088   11.9343   -8.8342 C   0  0  0  0  0  0  0  0  0  0  0  0
   13.1939   12.0468   -8.7624 C   0  0  0  0  0  0  0  0  0  0  0  0
   12.6252   12.9561   -8.1595 O   0  0  0  0  0  0  0  0  0  0  0  0
   12.4189   10.9486   -9.4778 C   0  0  0  0  0  0  0  0  0  0  0  0
   10.9053   11.1155   -9.3597 C   0  0  0  0  0  0  0  0  0  0  0  0
   10.3769   12.2559  -10.2347 C   0  0  0  0  0  0  0  0  0  0  0  0
    8.9485   12.5445   -9.9315 C   0  0  0  0  0  0  0  0  0  0  0  0
    7.8937   12.0674  -10.5586 N   0  0  0  0  0  0  0  0  0  0  0  0
    6.8079   12.6132   -9.9171 C   0  0  0  0  0  0  0  0  0  0  0  0
    5.4387   12.4461  -10.1697 C   0  0  0  0  0  0  0  0  0  0  0  0
    4.5181   13.1222   -9.3584 C   0  0  0  0  0  0  0  0  0  0  0  0
    4.9524   13.9472   -8.3174 C   0  0  0  0  0  0  0  0  0  0  0  0
    6.3150   14.1263   -8.0502 C   0  0  0  0  0  0  0  0  0  0  0  0
    7.2097   13.4410   -8.8747 C   0  0  0  0  0  0  0  0  0  0  0  0
    8.5785   13.3804   -8.9055 N   0  0  0  0  0  0  0  0  0  0  0  0
  1  2  1  0
  2  3  1  0
  3  4  1  0
  4  5  1  0
  5  6  2  0
  5  7  1  0
  7  8  1  0
  8  9  1  0
  9 10  1  0
 10 11  2  0
 11 12  1  0
 12 13  2  0
 13 14  1  0
 14 15  2  0
 15 16  1  0
 16 17  2  0
 17 18  1  0
 18 10  1  0
 17 12  1  0
M  END
$$$$
