
     RDKit          3D

 31 34  0  0  0  0  0  0  0  0999 V2000
    8.9800    2.7154  -23.0770 C   0  0  0  0  0  0  0  0  0  0  0  0
   10.2883    2.1791  -23.2269 O   0  0  0  0  0  0  0  0  0  0  0  0
   11.3089    3.0756  -23.3890 C   0  0  0  0  0  0  0  0  0  0  0  0
   11.1986    4.4585  -23.3488 C   0  0  0  0  0  0  0  0  0  0  0  0
   12.3322    5.2552  -23.5381 C   0  0  0  0  0  0  0  0  0  0  0  0
   13.6010    4.6897  -23.7761 C   0  0  0  0  0  0  0  0  0  0  0  0
   14.8273    5.5535  -24.0042 C   0  0  0  0  0  0  0  0  0  0  0  0
   14.5665    6.9599  -24.3210 N   0  0  0  0  0  0  0  0  0  0  0  0
   13.7256    3.2781  -23.7889 C   0  0  0  0  0  0  0  0  0  0  0  0
   14.9898    2.6750  -23.9685 N   0  0  0  0  0  0  0  0  0  0  0  0
   15.0642    1.6308  -25.0072 C   0  0  0  0  0  0  0  0  0  0  0  0
   15.6709    0.3171  -24.5126 C   0  0  0  0  0  0  0  0  0  0  0  0
   15.1654   -0.0751  -23.1298 C   0  0  0  0  0  0  0  0  0  0  0  0
   15.2516    1.0654  -22.1066 C   0  0  0  0  0  0  0  0  0  0  0  0
   15.7018    2.4024  -22.7127 C   0  0  0  0  0  0  0  0  0  0  0  0
   17.1130    2.2977  -22.9357 O   0  0  0  0  0  0  0  0  0  0  0  0
   17.7195    3.5292  -23.3315 C   0  0  0  0  0  0  0  0  0  0  0  0
   19.2367    3.3194  -23.4537 C   0  0  0  0  0  0  0  0  0  0  0  0
   19.5330    2.3627  -24.5283 N   0  0  0  0  0  0  0  0  0  0  0  0
   20.9680    2.1104  -24.6969 C   0  0  0  0  0  0  0  0  0  0  0  0
   21.6450    1.3393  -23.5516 C   0  0  0  0  0  0  0  0  0  0  0  0
   22.5138    2.2197  -22.6968 C   0  0  0  0  0  0  0  0  0  0  0  0
   22.0751    2.5601  -21.4453 N   0  0  0  0  0  0  0  0  0  0  0  0
   22.8543    3.3556  -20.6770 C   0  0  0  0  0  0  0  0  0  0  0  0
   24.0559    3.8863  -20.9788 N   0  0  0  0  0  0  0  0  0  0  0  0
   24.4379    3.5176  -22.2102 C   0  0  0  0  0  0  0  0  0  0  0  0
   25.5939    3.8643  -22.8466 N   0  0  0  0  0  0  0  0  0  0  0  0
   25.5784    3.2710  -24.0798 C   0  0  0  0  0  0  0  0  0  0  0  0
   24.4814    2.5686  -24.2735 N   0  0  0  0  0  0  0  0  0  0  0  0
   23.7578    2.7146  -23.1101 C   0  0  0  0  0  0  0  0  0  0  0  0
   12.5646    2.5020  -23.6013 C   0  0  0  0  0  0  0  0  0  0  0  0
  1  2  1  0
  2  3  1  0
  3  4  2  0
  4  5  1  0
  5  6  2  0
  6  7  1  0
  7  8  1  0
  6  9  1  0
  9 10  1  0
 10 11  1  0
 11 12  1  0
 12 13  1  0
 13 14  1  0
 14 15  1  0
 15 16  1  0
 16 17  1  0
 17 18  1  0
 18 19  1  0
 19 20  1  0
 20 21  1  0
 21 22  1  0
 22 23  2  0
 23 24  1  0
 24 25  2  0
 25 26  1  0
 26 27  1  0
 27 28  1  0
 28 29  2  0
 29 30  1  0
  9 31  2  0
 31  3  1  0
 15 10  1  0
 30 22  1  0
 30 26  2  0
M  END
$$$$
