
     RDKit          3D

 25 27  0  0  0  0  0  0  0  0999 V2000
   30.5361   -1.7598   -7.0515 N   0  0  0  0  0  0  0  0  0  0  0  0
   29.6983   -0.7943   -6.3500 C   0  0  0  0  0  0  0  0  0  0  0  0
   29.0185   -1.3629   -5.0963 C   0  0  0  0  0  0  0  0  0  0  0  0
   28.1166   -2.6148   -5.2321 C   0  0  0  0  0  0  0  0  0  0  0  0
   28.9450   -3.9114   -5.2992 C   0  0  0  0  0  0  0  0  0  0  0  0
   28.0573   -5.1549   -5.2332 C   0  0  0  0  0  0  0  0  0  0  0  0
   26.8038   -5.0450   -6.1005 C   0  0  0  0  0  0  0  0  0  0  0  0
   26.8799   -3.8809   -7.0842 C   0  0  0  0  0  0  0  0  0  0  0  0
   27.0521   -2.5301   -6.3620 C   0  0  0  0  0  0  0  0  0  0  0  0
   25.7843   -2.2185   -5.7349 O   0  0  0  0  0  0  0  0  0  0  0  0
   25.1380   -0.9951   -6.1869 N   0  0  0  0  0  0  0  0  0  0  0  0
   25.8869    0.1976   -5.8294 C   0  0  0  0  0  0  0  0  0  0  0  0
   25.0849    1.4448   -6.1861 C   0  0  0  0  0  0  0  0  0  0  0  0
   24.7948    1.5219   -7.6801 C   0  0  0  0  0  0  0  0  0  0  0  0
   24.8280    0.1643   -8.3855 C   0  0  0  0  0  0  0  0  0  0  0  0
   24.5516   -1.0907   -7.5170 C   0  0  0  0  0  0  0  0  0  0  0  0
   23.1305   -1.4672   -7.4880 N   0  0  0  0  0  0  0  0  0  0  0  0
   22.1730   -0.5223   -6.9096 C   0  0  0  0  0  0  0  0  0  0  0  0
   21.9289   -0.6666   -5.4078 C   0  0  0  0  0  0  0  0  0  0  0  0
   21.5203   -2.0869   -5.0516 C   0  0  0  0  0  0  0  0  0  0  0  0
   22.5335   -3.0851   -5.5961 C   0  0  0  0  0  0  0  0  0  0  0  0
   22.8713   -2.8655   -7.0805 C   0  0  0  0  0  0  0  0  0  0  0  0
   21.7350   -3.4376   -7.9662 C   0  0  0  0  0  0  0  0  0  0  0  0
   22.1250   -4.3804   -8.8919 N   0  0  0  0  0  0  0  0  0  0  0  0
   20.5474   -3.1318   -7.8841 O   0  0  0  0  0  0  0  0  0  0  0  0
  1  2  1  0
  2  3  1  0
  3  4  1  0
  4  5  1  0
  5  6  1  0
  6  7  1  0
  7  8  1  0
  8  9  1  0
  9 10  1  0
 10 11  1  0
 11 12  1  0
 12 13  1  0
 13 14  1  0
 14 15  1  0
 15 16  1  0
 16 17  1  0
 17 18  1  0
 18 19  1  0
 19 20  1  0
 20 21  1  0
 21 22  1  0
 22 23  1  0
 23 24  1  0
 23 25  2  0
  9  4  1  0
 16 11  1  0
 22 17  1  0
M  END
$$$$
