
     RDKit          3D

 27 30  0  0  0  0  0  0  0  0999 V2000
  -24.6546   12.7599    1.9454 N   0  0  0  0  0  0  0  0  0  0  0  0
  -23.6534   11.4024    2.0075 S   0  0  0  0  0  0  0  0  0  0  0  0
  -22.8887   11.4525    0.7832 O   0  0  0  0  0  0  0  0  0  0  0  0
  -24.5618   10.3242    2.3239 O   0  0  0  0  0  0  0  0  0  0  0  0
  -22.5716   11.6912    3.3719 C   0  0  0  0  0  0  0  0  0  0  0  0
  -22.5026   12.9992    3.8792 C   0  0  0  0  0  0  0  0  0  0  0  0
  -21.7982   13.2245    5.0446 C   0  0  0  0  0  0  0  0  0  0  0  0
  -21.1855   12.2491    5.7329 N   0  0  0  0  0  0  0  0  0  0  0  0
  -21.2578   11.0046    5.2034 C   0  0  0  0  0  0  0  0  0  0  0  0
  -21.9003   10.6396    4.0088 C   0  0  0  0  0  0  0  0  0  0  0  0
  -21.7857    9.3226    3.5840 N   0  0  0  0  0  0  0  0  0  0  0  0
  -22.4411    8.3118    4.4299 C   0  0  0  0  0  0  0  0  0  0  0  0
  -23.1743    7.2802    3.5801 C   0  0  0  0  0  0  0  0  0  0  0  0
  -22.2450    6.5711    2.5992 C   0  0  0  0  0  0  0  0  0  0  0  0
  -21.0376    7.4200    2.2044 C   0  0  0  0  0  0  0  0  0  0  0  0
  -21.3628    8.9274    2.2083 C   0  0  0  0  0  0  0  0  0  0  0  0
  -20.1237    9.7237    1.7047 C   0  0  0  0  0  0  0  0  0  0  0  0
  -19.0207    9.6495    2.6685 N   0  0  0  0  0  0  0  0  0  0  0  0
  -17.8949   10.3249    2.3677 C   0  0  0  0  0  0  0  0  0  0  0  0
  -17.4940   10.7839    1.2064 N   0  0  0  0  0  0  0  0  0  0  0  0
  -16.2914   11.4012    1.4498 C   0  0  0  0  0  0  0  0  0  0  0  0
  -15.4277   12.0657    0.5673 C   0  0  0  0  0  0  0  0  0  0  0  0
  -14.2456   12.6208    1.0743 C   0  0  0  0  0  0  0  0  0  0  0  0
  -13.9305   12.5166    2.4318 C   0  0  0  0  0  0  0  0  0  0  0  0
  -14.7792   11.8555    3.3281 C   0  0  0  0  0  0  0  0  0  0  0  0
  -15.9494   11.3125    2.7944 C   0  0  0  0  0  0  0  0  0  0  0  0
  -16.9884   10.6146    3.3528 N   0  0  0  0  0  0  0  0  0  0  0  0
  1  2  1  0
  2  3  2  0
  2  4  2  0
  2  5  1  0
  5  6  2  0
  6  7  1  0
  7  8  2  0
  8  9  1  0
  9 10  2  0
 10 11  1  0
 11 12  1  0
 12 13  1  0
 13 14  1  0
 14 15  1  0
 15 16  1  0
 16 17  1  0
 17 18  1  0
 18 19  1  0
 19 20  2  0
 20 21  1  0
 21 22  2  0
 22 23  1  0
 23 24  2  0
 24 25  1  0
 25 26  2  0
 26 27  1  0
 10  5  1  0
 16 11  1  0
 27 19  1  0
 26 21  1  0
M  END
$$$$
