
     RDKit          3D

 28 31  0  0  0  0  0  0  0  0999 V2000
  -66.4496  -23.7838   71.8575 N   0  0  0  0  0  0  0  0  0  0  0  0
  -67.7190  -24.2916   71.3447 C   0  0  0  0  0  0  0  0  0  0  0  0
  -67.5753  -24.8896   69.9648 C   0  0  0  0  0  0  0  0  0  0  0  0
  -67.7936  -24.0629   68.8448 C   0  0  0  0  0  0  0  0  0  0  0  0
  -67.6674  -24.5609   67.5486 C   0  0  0  0  0  0  0  0  0  0  0  0
  -67.3246  -25.8920   67.3669 C   0  0  0  0  0  0  0  0  0  0  0  0
  -67.1837  -26.4264   66.1176 O   0  0  0  0  0  0  0  0  0  0  0  0
  -67.1012  -26.7264   68.4574 C   0  0  0  0  0  0  0  0  0  0  0  0
  -67.2017  -26.2367   69.7709 C   0  0  0  0  0  0  0  0  0  0  0  0
  -66.9221  -27.0560   70.8822 N   0  0  0  0  0  0  0  0  0  0  0  0
  -67.8780  -28.1654   71.0533 C   0  0  0  0  0  0  0  0  0  0  0  0
  -67.2080  -29.5264   70.8819 C   0  0  0  0  0  0  0  0  0  0  0  0
  -66.0527  -29.7096   71.8662 C   0  0  0  0  0  0  0  0  0  0  0  0
  -65.3283  -28.4015   72.1692 C   0  0  0  0  0  0  0  0  0  0  0  0
  -65.4944  -27.3765   71.0414 C   0  0  0  0  0  0  0  0  0  0  0  0
  -64.7938  -26.1967   71.4396 O   0  0  0  0  0  0  0  0  0  0  0  0
  -63.5384  -26.0180   70.7801 C   0  0  0  0  0  0  0  0  0  0  0  0
  -63.7045  -25.4034   69.3829 C   0  0  0  0  0  0  0  0  0  0  0  0
  -62.4377  -25.2178   68.6953 N   0  0  0  0  0  0  0  0  0  0  0  0
  -61.5864  -24.2116   69.1416 C   0  0  0  0  0  0  0  0  0  0  0  0
  -62.0616  -23.1497   69.8433 N   0  0  0  0  0  0  0  0  0  0  0  0
  -61.1974  -22.1888   70.2391 C   0  0  0  0  0  0  0  0  0  0  0  0
  -59.8648  -22.1272   70.0385 N   0  0  0  0  0  0  0  0  0  0  0  0
  -59.4450  -23.1964   69.3530 C   0  0  0  0  0  0  0  0  0  0  0  0
  -58.1665  -23.4732   68.9648 N   0  0  0  0  0  0  0  0  0  0  0  0
  -58.1891  -24.6622   68.2900 C   0  0  0  0  0  0  0  0  0  0  0  0
  -59.4025  -25.1701   68.2257 N   0  0  0  0  0  0  0  0  0  0  0  0
  -60.2030  -24.2518   68.8799 C   0  0  0  0  0  0  0  0  0  0  0  0
  1  2  1  0
  2  3  1  0
  3  4  2  0
  4  5  1  0
  5  6  2  0
  6  7  1  0
  6  8  1  0
  8  9  2  0
  9 10  1  0
 10 11  1  0
 11 12  1  0
 12 13  1  0
 13 14  1  0
 14 15  1  0
 15 16  1  0
 16 17  1  0
 17 18  1  0
 18 19  1  0
 19 20  1  0
 20 21  2  0
 21 22  1  0
 22 23  2  0
 23 24  1  0
 24 25  1  0
 25 26  1  0
 26 27  2  0
 27 28  1  0
  9  3  1  0
 15 10  1  0
 28 20  1  0
 28 24  2  0
M  END
$$$$
