
     RDKit          3D

 31 34  0  0  0  0  0  0  0  0999 V2000
  -37.6226    7.8378   43.5316 N   0  0  0  0  0  0  0  0  0  0  0  0
  -38.9077    7.1319   43.5183 C   0  0  0  0  0  0  0  0  0  0  0  0
  -38.9578    6.0766   42.4064 C   0  0  0  0  0  0  0  0  0  0  0  0
  -38.2565    6.2129   41.3941 O   0  0  0  0  0  0  0  0  0  0  0  0
  -40.1293    4.6789   42.4274 S   0  0  0  0  0  0  0  0  0  0  0  0
  -41.4391    5.3250   42.4945 O   0  0  0  0  0  0  0  0  0  0  0  0
  -39.7160    3.7992   43.5164 O   0  0  0  0  0  0  0  0  0  0  0  0
  -39.9873    3.9037   40.8338 C   0  0  0  0  0  0  0  0  0  0  0  0
  -40.9491    4.2901   39.8806 C   0  0  0  0  0  0  0  0  0  0  0  0
  -40.8081    3.8535   38.5844 C   0  0  0  0  0  0  0  0  0  0  0  0
  -39.7945    3.0755   38.1867 N   0  0  0  0  0  0  0  0  0  0  0  0
  -38.9020    2.6950   39.1374 C   0  0  0  0  0  0  0  0  0  0  0  0
  -38.9334    3.0393   40.4941 C   0  0  0  0  0  0  0  0  0  0  0  0
  -38.0061    2.5337   41.4158 N   0  0  0  0  0  0  0  0  0  0  0  0
  -38.5502    1.4496   42.2681 C   0  0  0  0  0  0  0  0  0  0  0  0
  -38.2843    0.0713   41.6763 C   0  0  0  0  0  0  0  0  0  0  0  0
  -36.7905   -0.1410   41.4461 C   0  0  0  0  0  0  0  0  0  0  0  0
  -36.2512    0.9461   40.5237 C   0  0  0  0  0  0  0  0  0  0  0  0
  -36.5802    2.3811   40.9991 C   0  0  0  0  0  0  0  0  0  0  0  0
  -35.6286    2.7774   42.1464 C   0  0  0  0  0  0  0  0  0  0  0  0
  -35.7491    4.2336   42.5896 C   0  0  0  0  0  0  0  0  0  0  0  0
  -35.6543    5.1674   41.4823 N   0  0  0  0  0  0  0  0  0  0  0  0
  -34.4784    5.4434   40.9014 C   0  0  0  0  0  0  0  0  0  0  0  0
  -33.3051    4.8858   41.0806 N   0  0  0  0  0  0  0  0  0  0  0  0
  -32.4548    5.5363   40.2207 C   0  0  0  0  0  0  0  0  0  0  0  0
  -31.0851    5.3400   39.9873 C   0  0  0  0  0  0  0  0  0  0  0  0
  -30.4411    6.1498   39.0445 C   0  0  0  0  0  0  0  0  0  0  0  0
  -31.1430    7.1370   38.3507 C   0  0  0  0  0  0  0  0  0  0  0  0
  -32.5123    7.3466   38.5656 C   0  0  0  0  0  0  0  0  0  0  0  0
  -33.1281    6.5214   39.5064 C   0  0  0  0  0  0  0  0  0  0  0  0
  -34.4190    6.4327   39.9578 N   0  0  0  0  0  0  0  0  0  0  0  0
  1  2  1  0
  2  3  1  0
  3  4  2  0
  3  5  1  0
  5  6  2  0
  5  7  2  0
  5  8  1  0
  8  9  2  0
  9 10  1  0
 10 11  2  0
 11 12  1  0
 12 13  2  0
 13 14  1  0
 14 15  1  0
 15 16  1  0
 16 17  1  0
 17 18  1  0
 18 19  1  0
 19 20  1  0
 20 21  1  0
 21 22  1  0
 22 23  1  0
 23 24  2  0
 24 25  1  0
 25 26  2  0
 26 27  1  0
 27 28  2  0
 28 29  1  0
 29 30  2  0
 30 31  1  0
 13  8  1  0
 19 14  1  0
 31 23  1  0
 30 25  1  0
M  END
$$$$
