
     RDKit          3D

 24 26  0  0  0  0  0  0  0  0999 V2000
  -29.3319  -10.1765   -9.2888 C   0  0  0  0  0  0  0  0  0  0  0  0
  -28.4002   -9.1452   -9.5888 O   0  0  0  0  0  0  0  0  0  0  0  0
  -28.4023   -8.0529   -8.7660 C   0  0  0  0  0  0  0  0  0  0  0  0
  -29.2483   -7.8407   -7.6871 C   0  0  0  0  0  0  0  0  0  0  0  0
  -29.1362   -6.6659   -6.9402 C   0  0  0  0  0  0  0  0  0  0  0  0
  -28.1758   -5.6767   -7.2466 C   0  0  0  0  0  0  0  0  0  0  0  0
  -28.1973   -4.4251   -6.3970 C   0  0  0  0  0  0  0  0  0  0  0  0
  -29.3744   -3.5102   -6.7609 C   0  0  0  0  0  0  0  0  0  0  0  0
  -29.3280   -2.2621   -5.9996 N   0  0  0  0  0  0  0  0  0  0  0  0
  -27.2951   -5.8964   -8.3233 C   0  0  0  0  0  0  0  0  0  0  0  0
  -26.2650   -5.0415   -8.7432 N   0  0  0  0  0  0  0  0  0  0  0  0
  -26.7463   -3.8311   -9.4256 C   0  0  0  0  0  0  0  0  0  0  0  0
  -25.6032   -3.1532  -10.1646 C   0  0  0  0  0  0  0  0  0  0  0  0
  -25.7654   -2.5844  -11.2460 O   0  0  0  0  0  0  0  0  0  0  0  0
  -24.2884   -3.0561   -9.4264 C   0  0  0  0  0  0  0  0  0  0  0  0
  -23.9413   -4.3744   -8.7442 C   0  0  0  0  0  0  0  0  0  0  0  0
  -25.1057   -4.8678   -7.8404 C   0  0  0  0  0  0  0  0  0  0  0  0
  -24.6798   -5.9738   -6.9721 N   0  0  0  0  0  0  0  0  0  0  0  0
  -23.9597   -5.5510   -5.7701 C   0  0  0  0  0  0  0  0  0  0  0  0
  -23.1656   -6.6829   -5.1036 C   0  0  0  0  0  0  0  0  0  0  0  0
  -23.8701   -8.0235   -5.2619 C   0  0  0  0  0  0  0  0  0  0  0  0
  -24.1300   -8.3439   -6.7367 C   0  0  0  0  0  0  0  0  0  0  0  0
  -24.0688   -7.1104   -7.6455 C   0  0  0  0  0  0  0  0  0  0  0  0
  -27.4459   -7.0827   -9.0726 C   0  0  0  0  0  0  0  0  0  0  0  0
  1  2  1  0
  2  3  1  0
  3  4  2  0
  4  5  1  0
  5  6  2  0
  6  7  1  0
  7  8  1  0
  8  9  1  0
  6 10  1  0
 10 11  1  0
 11 12  1  0
 12 13  1  0
 13 14  2  0
 13 15  1  0
 15 16  1  0
 16 17  1  0
 17 18  1  0
 18 19  1  0
 19 20  1  0
 20 21  1  0
 21 22  1  0
 22 23  1  0
 10 24  2  0
 24  3  1  0
 17 11  1  0
 23 18  1  0
M  END
$$$$
