
     RDKit          3D

 19 20  0  0  0  0  0  0  0  0999 V2000
  -32.3772    6.1163   24.6392 C   0  0  0  0  0  0  0  0  0  0  0  0
  -32.6340    5.2037   23.5585 N   0  0  0  0  0  0  0  0  0  0  0  0
  -31.5919    4.6137   22.8749 C   0  0  0  0  0  0  0  0  0  0  0  0
  -30.4134    4.9257   23.0217 O   0  0  0  0  0  0  0  0  0  0  0  0
  -32.0431    3.5430   21.9024 C   0  0  0  0  0  0  0  0  0  0  0  0
  -32.2001    2.1861   22.5524 C   0  0  0  0  0  0  0  0  0  0  0  0
  -31.1545    1.2565   22.4060 C   0  0  0  0  0  0  0  0  0  0  0  0
  -31.2395   -0.0198   22.9639 C   0  0  0  0  0  0  0  0  0  0  0  0
  -32.3762   -0.3893   23.6725 C   0  0  0  0  0  0  0  0  0  0  0  0
  -32.6034   -1.6090   24.2506 O   0  0  0  0  0  0  0  0  0  0  0  0
  -31.5659   -2.5753   24.1382 C   0  0  0  0  0  0  0  0  0  0  0  0
  -33.4137    0.5362   23.8342 C   0  0  0  0  0  0  0  0  0  0  0  0
  -33.3409    1.8400   23.3106 C   0  0  0  0  0  0  0  0  0  0  0  0
  -34.3879    2.7807   23.4800 N   0  0  0  0  0  0  0  0  0  0  0  0
  -35.4271    2.5978   22.4523 C   0  0  0  0  0  0  0  0  0  0  0  0
  -36.2608    3.8794   22.3669 C   0  0  0  0  0  0  0  0  0  0  0  0
  -36.4761    4.5506   23.7266 C   0  0  0  0  0  0  0  0  0  0  0  0
  -36.3033    3.5652   24.8747 C   0  0  0  0  0  0  0  0  0  0  0  0
  -34.9287    2.8818   24.8582 C   0  0  0  0  0  0  0  0  0  0  0  0
  1  2  1  0
  2  3  1  0
  3  4  2  0
  3  5  1  0
  5  6  1  0
  6  7  2  0
  7  8  1  0
  8  9  2  0
  9 10  1  0
 10 11  1  0
  9 12  1  0
 12 13  2  0
 13 14  1  0
 14 15  1  0
 15 16  1  0
 16 17  1  0
 17 18  1  0
 18 19  1  0
 13  6  1  0
 19 14  1  0
M  END
$$$$
