
     RDKit          3D

 22 24  0  0  0  0  0  0  0  0999 V2000
   -3.7287   -1.6228   -0.9926 N   0  0  0  0  0  0  0  0  0  0  0  0
   -2.5741   -2.5135   -0.8889 C   0  0  0  0  0  0  0  0  0  0  0  0
   -2.5860   -3.3177    0.3951 C   0  0  0  0  0  0  0  0  0  0  0  0
   -3.5108   -4.3818    0.4834 C   0  0  0  0  0  0  0  0  0  0  0  0
   -3.5647   -5.1971    1.6089 C   0  0  0  0  0  0  0  0  0  0  0  0
   -2.6969   -4.9554    2.6579 C   0  0  0  0  0  0  0  0  0  0  0  0
   -2.7828   -5.7692    3.7497 O   0  0  0  0  0  0  0  0  0  0  0  0
   -1.7724   -3.9134    2.5966 C   0  0  0  0  0  0  0  0  0  0  0  0
   -1.6913   -3.0728    1.4689 C   0  0  0  0  0  0  0  0  0  0  0  0
   -0.7670   -2.0209    1.4119 N   0  0  0  0  0  0  0  0  0  0  0  0
   -1.3606   -0.6749    1.5409 C   0  0  0  0  0  0  0  0  0  0  0  0
   -1.3123   -0.2070    2.9858 C   0  0  0  0  0  0  0  0  0  0  0  0
   -2.1104    0.6075    3.4510 O   0  0  0  0  0  0  0  0  0  0  0  0
   -0.2040   -0.7775    3.8333 C   0  0  0  0  0  0  0  0  0  0  0  0
    0.9735   -1.1327    2.9377 C   0  0  0  0  0  0  0  0  0  0  0  0
    0.6331   -2.2103    1.8632 C   0  0  0  0  0  0  0  0  0  0  0  0
    1.6958   -2.2033    0.8260 N   0  0  0  0  0  0  0  0  0  0  0  0
    1.3948   -3.1218   -0.2862 C   0  0  0  0  0  0  0  0  0  0  0  0
    1.5417   -4.6040    0.0700 C   0  0  0  0  0  0  0  0  0  0  0  0
    2.9273   -4.9010    0.6334 C   0  0  0  0  0  0  0  0  0  0  0  0
    3.2881   -3.9276    1.7507 C   0  0  0  0  0  0  0  0  0  0  0  0
    3.0566   -2.4770    1.3181 C   0  0  0  0  0  0  0  0  0  0  0  0
  1  2  1  0
  2  3  1  0
  3  4  2  0
  4  5  1  0
  5  6  2  0
  6  7  1  0
  6  8  1  0
  8  9  2  0
  9 10  1  0
 10 11  1  0
 11 12  1  0
 12 13  2  0
 12 14  1  0
 14 15  1  0
 15 16  1  0
 16 17  1  0
 17 18  1  0
 18 19  1  0
 19 20  1  0
 20 21  1  0
 21 22  1  0
  9  3  1  0
 16 10  1  0
 22 17  1  0
M  END
$$$$
