
     RDKit          3D

 16 17  0  0  0  0  0  0  0  0999 V2000
   -6.9569    8.3692  -13.2606 N   0  0  0  0  0  0  0  0  0  0  0  0
   -7.8611    8.2372  -12.1184 C   0  0  0  0  0  0  0  0  0  0  0  0
   -9.2739    7.9188  -12.5913 C   0  0  0  0  0  0  0  0  0  0  0  0
  -10.2358    7.7645  -11.4272 C   0  0  0  0  0  0  0  0  0  0  0  0
   -9.9102    8.0252  -10.2696 O   0  0  0  0  0  0  0  0  0  0  0  0
  -11.6319    7.2950  -11.7889 C   0  0  0  0  0  0  0  0  0  0  0  0
  -12.5253    7.1492  -10.5610 C   0  0  0  0  0  0  0  0  0  0  0  0
  -13.9002    6.6860  -10.9273 C   0  0  0  0  0  0  0  0  0  0  0  0
  -14.3492    5.3797  -10.9317 C   0  0  0  0  0  0  0  0  0  0  0  0
  -15.6589    5.3760  -11.3290 N   0  0  0  0  0  0  0  0  0  0  0  0
  -16.0806    6.6581  -11.5920 C   0  0  0  0  0  0  0  0  0  0  0  0
  -17.3273    7.1269  -12.0237 C   0  0  0  0  0  0  0  0  0  0  0  0
  -17.4733    8.5049  -12.2074 C   0  0  0  0  0  0  0  0  0  0  0  0
  -16.4140    9.3765  -11.9671 C   0  0  0  0  0  0  0  0  0  0  0  0
  -15.1742    8.8905  -11.5359 C   0  0  0  0  0  0  0  0  0  0  0  0
  -14.9995    7.5042  -11.3442 C   0  0  0  0  0  0  0  0  0  0  0  0
  1  2  1  0
  2  3  1  0
  3  4  1  0
  4  5  2  0
  4  6  1  0
  6  7  1  0
  7  8  1  0
  8  9  2  0
  9 10  1  0
 10 11  1  0
 11 12  2  0
 12 13  1  0
 13 14  2  0
 14 15  1  0
 15 16  2  0
 16  8  1  0
 16 11  1  0
M  END
$$$$
