
     RDKit          3D

 15 16  0  0  0  0  0  0  0  0999 V2000
    3.5179  -18.9679    8.3466 N   0  0  0  0  0  0  0  0  0  0  0  0
    2.3831  -19.3255    7.5039 C   0  0  0  0  0  0  0  0  0  0  0  0
    2.4548  -20.7929    7.0813 C   0  0  0  0  0  0  0  0  0  0  0  0
    1.3173  -21.1864    6.1410 C   0  0  0  0  0  0  0  0  0  0  0  0
   -0.0166  -21.2505    6.8664 C   0  0  0  0  0  0  0  0  0  0  0  0
   -0.2153  -22.1700    7.6633 O   0  0  0  0  0  0  0  0  0  0  0  0
   -1.0298  -20.2163    6.6267 C   0  0  0  0  0  0  0  0  0  0  0  0
   -0.9014  -19.0982    5.8189 C   0  0  0  0  0  0  0  0  0  0  0  0
   -2.0682  -18.3818    5.8731 N   0  0  0  0  0  0  0  0  0  0  0  0
   -2.9703  -19.0035    6.7006 C   0  0  0  0  0  0  0  0  0  0  0  0
   -4.2751  -18.6325    7.0486 C   0  0  0  0  0  0  0  0  0  0  0  0
   -4.9741  -19.4643    7.9273 C   0  0  0  0  0  0  0  0  0  0  0  0
   -4.3890  -20.6198    8.4363 C   0  0  0  0  0  0  0  0  0  0  0  0
   -3.0835  -20.9745    8.0772 C   0  0  0  0  0  0  0  0  0  0  0  0
   -2.3515  -20.1546    7.1907 C   0  0  0  0  0  0  0  0  0  0  0  0
  1  2  1  0
  2  3  1  0
  3  4  1  0
  4  5  1  0
  5  6  2  0
  5  7  1  0
  7  8  2  0
  8  9  1  0
  9 10  1  0
 10 11  2  0
 11 12  1  0
 12 13  2  0
 13 14  1  0
 14 15  2  0
 15  7  1  0
 15 10  1  0
M  END
$$$$
