
     RDKit          3D

 19 20  0  0  0  0  0  0  0  0999 V2000
   34.2728   10.8043  -34.2247 N   0  0  0  0  0  0  0  0  0  0  0  0
   34.7799   10.2866  -35.4902 C   0  0  0  0  0  0  0  0  0  0  0  0
   34.8099   11.3655  -36.5624 C   0  0  0  0  0  0  0  0  0  0  0  0
   33.4178   11.7460  -37.0226 C   0  0  0  0  0  0  0  0  0  0  0  0
   32.6610   10.9258  -37.5463 O   0  0  0  0  0  0  0  0  0  0  0  0
   32.9891   13.1730  -36.8328 C   0  0  0  0  0  0  0  0  0  0  0  0
   32.5534   13.4801  -35.4271 C   0  0  0  0  0  0  0  0  0  0  0  0
   33.3469   13.9562  -34.6121 O   0  0  0  0  0  0  0  0  0  0  0  0
   31.1232   13.1642  -35.0504 C   0  0  0  0  0  0  0  0  0  0  0  0
   31.0312   11.8584  -34.2753 C   0  0  0  0  0  0  0  0  0  0  0  0
   29.6109   11.4719  -34.0106 C   0  0  0  0  0  0  0  0  0  0  0  0
   28.8643   11.7918  -32.8938 C   0  0  0  0  0  0  0  0  0  0  0  0
   27.6140   11.2555  -33.0455 N   0  0  0  0  0  0  0  0  0  0  0  0
   27.5223   10.5905  -34.2457 C   0  0  0  0  0  0  0  0  0  0  0  0
   26.4453    9.9015  -34.8166 C   0  0  0  0  0  0  0  0  0  0  0  0
   26.6445    9.3112  -36.0682 C   0  0  0  0  0  0  0  0  0  0  0  0
   27.8717    9.4073  -36.7198 C   0  0  0  0  0  0  0  0  0  0  0  0
   28.9379   10.1001  -36.1349 C   0  0  0  0  0  0  0  0  0  0  0  0
   28.7628   10.7051  -34.8731 C   0  0  0  0  0  0  0  0  0  0  0  0
  1  2  1  0
  2  3  1  0
  3  4  1  0
  4  5  2  0
  4  6  1  0
  6  7  1  0
  7  8  2  0
  7  9  1  0
  9 10  1  0
 10 11  1  0
 11 12  2  0
 12 13  1  0
 13 14  1  0
 14 15  2  0
 15 16  1  0
 16 17  2  0
 17 18  1  0
 18 19  2  0
 19 11  1  0
 19 14  1  0
M  END
$$$$
