
     RDKit          3D

 26 28  0  0  0  0  0  0  0  0999 V2000
   -0.0304  -12.1424  -22.7994 C   0  0  0  0  0  0  0  0  0  0  0  0
    0.5167  -11.1382  -23.6742 N   0  0  0  0  0  0  0  0  0  0  0  0
    1.4873  -10.2657  -23.2371 C   0  0  0  0  0  0  0  0  0  0  0  0
    2.0069  -10.3310  -22.1334 O   0  0  0  0  0  0  0  0  0  0  0  0
    1.8847   -9.2373  -24.2750 C   0  0  0  0  0  0  0  0  0  0  0  0
    1.1854   -7.9105  -24.0882 C   0  0  0  0  0  0  0  0  0  0  0  0
    1.7928   -6.9691  -23.2389 C   0  0  0  0  0  0  0  0  0  0  0  0
    1.2107   -5.7229  -23.0068 C   0  0  0  0  0  0  0  0  0  0  0  0
    0.0099   -5.3961  -23.6236 C   0  0  0  0  0  0  0  0  0  0  0  0
   -0.6623   -4.2119  -23.4972 O   0  0  0  0  0  0  0  0  0  0  0  0
   -0.0446   -3.2093  -22.6998 C   0  0  0  0  0  0  0  0  0  0  0  0
   -0.6093   -6.3328  -24.4569 C   0  0  0  0  0  0  0  0  0  0  0  0
   -0.0548   -7.6045  -24.6934 C   0  0  0  0  0  0  0  0  0  0  0  0
   -0.6741   -8.5504  -25.5596 N   0  0  0  0  0  0  0  0  0  0  0  0
   -0.1899   -8.2856  -26.9421 C   0  0  0  0  0  0  0  0  0  0  0  0
   -0.7057   -9.3154  -27.9404 C   0  0  0  0  0  0  0  0  0  0  0  0
   -0.1524   -9.4704  -29.0452 O   0  0  0  0  0  0  0  0  0  0  0  0
   -2.0330   -9.9972  -27.6636 C   0  0  0  0  0  0  0  0  0  0  0  0
   -2.5028   -9.9605  -26.2111 C   0  0  0  0  0  0  0  0  0  0  0  0
   -2.1629   -8.6179  -25.5202 C   0  0  0  0  0  0  0  0  0  0  0  0
   -2.9079   -8.4471  -24.2722 N   0  0  0  0  0  0  0  0  0  0  0  0
   -4.3057   -8.0705  -24.4199 C   0  0  0  0  0  0  0  0  0  0  0  0
   -4.8429   -7.5654  -23.0820 C   0  0  0  0  0  0  0  0  0  0  0  0
   -4.6725   -8.5817  -21.9526 C   0  0  0  0  0  0  0  0  0  0  0  0
   -3.8371   -9.7852  -22.3727 C   0  0  0  0  0  0  0  0  0  0  0  0
   -2.6089   -9.3815  -23.1915 C   0  0  0  0  0  0  0  0  0  0  0  0
  1  2  1  0
  2  3  1  0
  3  4  2  0
  3  5  1  0
  5  6  1  0
  6  7  2  0
  7  8  1  0
  8  9  2  0
  9 10  1  0
 10 11  1  0
  9 12  1  0
 12 13  2  0
 13 14  1  0
 14 15  1  0
 15 16  1  0
 16 17  2  0
 16 18  1  0
 18 19  1  0
 19 20  1  0
 20 21  1  0
 21 22  1  0
 22 23  1  0
 23 24  1  0
 24 25  1  0
 25 26  1  0
 13  6  1  0
 20 14  1  0
 26 21  1  0
M  END
$$$$
