
     RDKit          3D

 27 30  0  0  0  0  0  0  0  0999 V2000
   -3.7051   15.6606    1.1007 N   0  0  0  0  0  0  0  0  0  0  0  0
   -2.7438   16.7229    0.8022 C   0  0  0  0  0  0  0  0  0  0  0  0
   -1.3605   16.4810    1.4296 C   0  0  0  0  0  0  0  0  0  0  0  0
   -1.3436   16.5006    2.9464 C   0  0  0  0  0  0  0  0  0  0  0  0
   -1.6393   17.7015    3.6113 C   0  0  0  0  0  0  0  0  0  0  0  0
   -1.6069   17.7360    4.9959 C   0  0  0  0  0  0  0  0  0  0  0  0
   -1.3036   16.6715    5.7605 N   0  0  0  0  0  0  0  0  0  0  0  0
   -1.0226   15.5205    5.1039 C   0  0  0  0  0  0  0  0  0  0  0  0
   -1.0065   15.3661    3.7111 C   0  0  0  0  0  0  0  0  0  0  0  0
   -0.6948   14.1490    3.0809 N   0  0  0  0  0  0  0  0  0  0  0  0
   -1.8901   13.2880    2.9070 C   0  0  0  0  0  0  0  0  0  0  0  0
   -1.8113   12.0204    3.7388 C   0  0  0  0  0  0  0  0  0  0  0  0
   -2.7732   11.5935    4.3790 O   0  0  0  0  0  0  0  0  0  0  0  0
   -0.5093   11.2559    3.7022 C   0  0  0  0  0  0  0  0  0  0  0  0
    0.5837   12.0459    2.9917 C   0  0  0  0  0  0  0  0  0  0  0  0
    0.5872   13.5077    3.4724 C   0  0  0  0  0  0  0  0  0  0  0  0
    1.7800   14.2928    2.8543 C   0  0  0  0  0  0  0  0  0  0  0  0
    3.0646   13.7999    3.3652 N   0  0  0  0  0  0  0  0  0  0  0  0
    4.1431   14.6113    3.2882 C   0  0  0  0  0  0  0  0  0  0  0  0
    5.3025   14.3109    2.7602 N   0  0  0  0  0  0  0  0  0  0  0  0
    6.0855   15.4257    2.9438 C   0  0  0  0  0  0  0  0  0  0  0  0
    7.4134   15.6631    2.5600 C   0  0  0  0  0  0  0  0  0  0  0  0
    7.9931   16.8997    2.8755 C   0  0  0  0  0  0  0  0  0  0  0  0
    7.2666   17.8775    3.5610 C   0  0  0  0  0  0  0  0  0  0  0  0
    5.9406   17.6585    3.9541 C   0  0  0  0  0  0  0  0  0  0  0  0
    5.3875   16.4192    3.6227 C   0  0  0  0  0  0  0  0  0  0  0  0
    4.1532   15.8639    3.8423 N   0  0  0  0  0  0  0  0  0  0  0  0
  1  2  1  0
  2  3  1  0
  3  4  1  0
  4  5  2  0
  5  6  1  0
  6  7  2  0
  7  8  1  0
  8  9  2  0
  9 10  1  0
 10 11  1  0
 11 12  1  0
 12 13  2  0
 12 14  1  0
 14 15  1  0
 15 16  1  0
 16 17  1  0
 17 18  1  0
 18 19  1  0
 19 20  2  0
 20 21  1  0
 21 22  2  0
 22 23  1  0
 23 24  2  0
 24 25  1  0
 25 26  2  0
 26 27  1  0
  9  4  1  0
 16 10  1  0
 27 19  1  0
 26 21  1  0
M  END
$$$$
