
     RDKit          3D

 30 33  0  0  0  0  0  0  0  0999 V2000
   25.2604    6.2987  -14.2827 C   0  0  0  0  0  0  0  0  0  0  0  0
   25.8742    6.4119  -12.9989 O   0  0  0  0  0  0  0  0  0  0  0  0
   26.9730    5.6300  -12.7626 C   0  0  0  0  0  0  0  0  0  0  0  0
   27.5518    5.8026  -11.5061 C   0  0  0  0  0  0  0  0  0  0  0  0
   28.6710    5.0588  -11.1321 C   0  0  0  0  0  0  0  0  0  0  0  0
   29.2046    4.0955  -11.9945 C   0  0  0  0  0  0  0  0  0  0  0  0
   30.4181    3.4552  -11.6262 N   0  0  0  0  0  0  0  0  0  0  0  0
   28.6731    3.9518  -13.3073 C   0  0  0  0  0  0  0  0  0  0  0  0
   29.2874    3.0786  -14.2245 N   0  0  0  0  0  0  0  0  0  0  0  0
   29.3426    3.4978  -15.6442 C   0  0  0  0  0  0  0  0  0  0  0  0
   28.2020    2.8952  -16.4519 C   0  0  0  0  0  0  0  0  0  0  0  0
   27.5492    3.5544  -17.2637 O   0  0  0  0  0  0  0  0  0  0  0  0
   27.9640    1.4160  -16.2565 C   0  0  0  0  0  0  0  0  0  0  0  0
   27.8910    1.1165  -14.7635 C   0  0  0  0  0  0  0  0  0  0  0  0
   29.1203    1.6370  -13.9898 C   0  0  0  0  0  0  0  0  0  0  0  0
   30.3121    0.8834  -14.3648 N   0  0  0  0  0  0  0  0  0  0  0  0
   30.6192   -0.2249  -13.4546 C   0  0  0  0  0  0  0  0  0  0  0  0
   32.0768   -0.7188  -13.6400 C   0  0  0  0  0  0  0  0  0  0  0  0
   33.0791    0.3343  -13.8176 N   0  0  0  0  0  0  0  0  0  0  0  0
   33.2954    1.1896  -12.6522 C   0  0  0  0  0  0  0  0  0  0  0  0
   33.8168    2.5392  -13.0558 C   0  0  0  0  0  0  0  0  0  0  0  0
   35.0044    2.8112  -13.5786 N   0  0  0  0  0  0  0  0  0  0  0  0
   35.0332    4.1731  -13.7600 C   0  0  0  0  0  0  0  0  0  0  0  0
   36.0570    4.9939  -14.2686 C   0  0  0  0  0  0  0  0  0  0  0  0
   35.8341    6.3765  -14.3439 C   0  0  0  0  0  0  0  0  0  0  0  0
   34.6160    6.9276  -13.9259 C   0  0  0  0  0  0  0  0  0  0  0  0
   33.5814    6.1231  -13.4185 C   0  0  0  0  0  0  0  0  0  0  0  0
   33.8346    4.7510  -13.3511 C   0  0  0  0  0  0  0  0  0  0  0  0
   33.0743    3.6925  -12.9117 N   0  0  0  0  0  0  0  0  0  0  0  0
   27.5405    4.7165  -13.6564 C   0  0  0  0  0  0  0  0  0  0  0  0
  1  2  1  0
  2  3  1  0
  3  4  2  0
  4  5  1  0
  5  6  2  0
  6  7  1  0
  6  8  1  0
  8  9  1  0
  9 10  1  0
 10 11  1  0
 11 12  2  0
 11 13  1  0
 13 14  1  0
 14 15  1  0
 15 16  1  0
 16 17  1  0
 17 18  1  0
 18 19  1  0
 19 20  1  0
 20 21  1  0
 21 22  2  0
 22 23  1  0
 23 24  2  0
 24 25  1  0
 25 26  2  0
 26 27  1  0
 27 28  2  0
 28 29  1  0
  8 30  2  0
 30  3  1  0
 15  9  1  0
 29 21  1  0
 28 23  1  0
M  END
$$$$
