
     RDKit          3D

 25 27  0  0  0  0  0  0  0  0999 V2000
   -1.6798   19.4622    8.2892 C   0  0  0  0  0  0  0  0  0  0  0  0
   -0.7607   18.3802    7.9847 N   0  0  0  0  0  0  0  0  0  0  0  0
   -0.3537   18.1743    6.6597 C   0  0  0  0  0  0  0  0  0  0  0  0
   -0.4027   19.1611    5.6725 C   0  0  0  0  0  0  0  0  0  0  0  0
    0.0684   18.9171    4.3765 C   0  0  0  0  0  0  0  0  0  0  0  0
    0.6341   17.6838    4.0561 C   0  0  0  0  0  0  0  0  0  0  0  0
    1.1473   17.3537    2.8247 O   0  0  0  0  0  0  0  0  0  0  0  0
    0.7380   18.1580    1.7253 C   0  0  0  0  0  0  0  0  0  0  0  0
    0.7711   16.6954    5.0513 C   0  0  0  0  0  0  0  0  0  0  0  0
    1.3531   15.4546    4.7176 N   0  0  0  0  0  0  0  0  0  0  0  0
    2.3652   14.8931    5.6166 C   0  0  0  0  0  0  0  0  0  0  0  0
    3.5921   15.7875    5.7703 C   0  0  0  0  0  0  0  0  0  0  0  0
    4.4127   15.8801    4.4968 C   0  0  0  0  0  0  0  0  0  0  0  0
    4.3220   15.0461    3.6027 O   0  0  0  0  0  0  0  0  0  0  0  0
    5.2729   16.9575    4.5273 N   0  0  0  0  0  0  0  0  0  0  0  0
    6.1704   17.3164    3.5164 C   0  0  0  0  0  0  0  0  0  0  0  0
    6.3096   16.6234    2.3634 N   0  0  0  0  0  0  0  0  0  0  0  0
    7.2015   17.0609    1.4504 C   0  0  0  0  0  0  0  0  0  0  0  0
    8.0162   18.1353    1.5281 N   0  0  0  0  0  0  0  0  0  0  0  0
    7.8429   18.7749    2.6929 C   0  0  0  0  0  0  0  0  0  0  0  0
    8.4961   19.8923    3.1260 N   0  0  0  0  0  0  0  0  0  0  0  0
    8.0018   20.2043    4.3644 C   0  0  0  0  0  0  0  0  0  0  0  0
    7.0733   19.3544    4.7543 N   0  0  0  0  0  0  0  0  0  0  0  0
    6.9677   18.4517    3.7138 C   0  0  0  0  0  0  0  0  0  0  0  0
    0.2642   16.9555    6.3335 C   0  0  0  0  0  0  0  0  0  0  0  0
  1  2  1  0
  2  3  1  0
  3  4  2  0
  4  5  1  0
  5  6  2  0
  6  7  1  0
  7  8  1  0
  6  9  1  0
  9 10  1  0
 10 11  1  0
 11 12  1  0
 12 13  1  0
 13 14  2  0
 13 15  1  0
 15 16  1  0
 16 17  2  0
 17 18  1  0
 18 19  2  0
 19 20  1  0
 20 21  1  0
 21 22  1  0
 22 23  2  0
 23 24  1  0
  9 25  2  0
 25  3  1  0
 24 16  1  0
 24 20  2  0
M  END
$$$$
