
     RDKit          3D

 25 27  0  0  0  0  0  0  0  0999 V2000
   17.0802   36.7092  -13.2350 C   0  0  0  0  0  0  0  0  0  0  0  0
   16.9139   37.1447  -11.8849 O   0  0  0  0  0  0  0  0  0  0  0  0
   17.2529   36.2099  -10.9423 C   0  0  0  0  0  0  0  0  0  0  0  0
   16.4528   36.1721   -9.8087 C   0  0  0  0  0  0  0  0  0  0  0  0
   16.7332   35.2664   -8.7887 C   0  0  0  0  0  0  0  0  0  0  0  0
   17.8400   34.3968   -8.8662 C   0  0  0  0  0  0  0  0  0  0  0  0
   18.0963   33.4789   -7.6851 C   0  0  0  0  0  0  0  0  0  0  0  0
   18.4739   34.1998   -6.3994 C   0  0  0  0  0  0  0  0  0  0  0  0
   19.5110   33.6437   -5.6996 N   0  0  0  0  0  0  0  0  0  0  0  0
   17.8942   35.1820   -5.9475 O   0  0  0  0  0  0  0  0  0  0  0  0
   18.6728   34.4389  -10.0090 C   0  0  0  0  0  0  0  0  0  0  0  0
   19.7568   33.5632  -10.1601 N   0  0  0  0  0  0  0  0  0  0  0  0
   19.4351   32.1870  -10.5546 C   0  0  0  0  0  0  0  0  0  0  0  0
   18.6897   32.1664  -11.7626 O   0  0  0  0  0  0  0  0  0  0  0  0
   20.7004   31.3544  -10.7506 C   0  0  0  0  0  0  0  0  0  0  0  0
   21.6023   31.9439  -11.8340 C   0  0  0  0  0  0  0  0  0  0  0  0
   21.4257   33.4568  -11.9571 C   0  0  0  0  0  0  0  0  0  0  0  0
   21.0698   34.1185  -10.5973 C   0  0  0  0  0  0  0  0  0  0  0  0
   22.1927   34.0248   -9.6267 N   0  0  0  0  0  0  0  0  0  0  0  0
   21.8876   34.7514   -8.3914 C   0  0  0  0  0  0  0  0  0  0  0  0
   22.8763   34.3468   -7.2912 C   0  0  0  0  0  0  0  0  0  0  0  0
   24.3071   34.1712   -7.8054 C   0  0  0  0  0  0  0  0  0  0  0  0
   24.5028   34.9260   -9.1111 C   0  0  0  0  0  0  0  0  0  0  0  0
   23.4872   34.4726  -10.1746 C   0  0  0  0  0  0  0  0  0  0  0  0
   18.3545   35.3586  -11.0340 C   0  0  0  0  0  0  0  0  0  0  0  0
  1  2  1  0
  2  3  1  0
  3  4  2  0
  4  5  1  0
  5  6  2  0
  6  7  1  0
  7  8  1  0
  8  9  1  0
  8 10  2  0
  6 11  1  0
 11 12  1  0
 12 13  1  0
 13 14  1  0
 13 15  1  0
 15 16  1  0
 16 17  1  0
 17 18  1  0
 18 19  1  0
 19 20  1  0
 20 21  1  0
 21 22  1  0
 22 23  1  0
 23 24  1  0
 11 25  2  0
 25  3  1  0
 18 12  1  0
 24 19  1  0
M  END
$$$$
