
     RDKit          3D

 28 31  0  0  0  0  0  0  0  0999 V2000
    4.8855   10.1483   38.0347 N   0  0  0  0  0  0  0  0  0  0  0  0
    4.1730    9.9915   36.7745 C   0  0  0  0  0  0  0  0  0  0  0  0
    2.6708    9.8532   37.0046 C   0  0  0  0  0  0  0  0  0  0  0  0
    2.2350    9.3937   35.6443 C   0  0  0  0  0  0  0  0  0  0  0  0
    1.0737    9.4181   35.2532 O   0  0  0  0  0  0  0  0  0  0  0  0
    3.3909    8.9327   34.7934 C   0  0  0  0  0  0  0  0  0  0  0  0
    4.5447    8.7939   35.8216 C   0  0  0  0  0  0  0  0  0  0  0  0
    4.6048    7.4226   36.3740 N   0  0  0  0  0  0  0  0  0  0  0  0
    4.9098    6.3764   35.3910 C   0  0  0  0  0  0  0  0  0  0  0  0
    4.3122    5.0475   35.8657 C   0  0  0  0  0  0  0  0  0  0  0  0
    4.3623    4.8881   37.3852 C   0  0  0  0  0  0  0  0  0  0  0  0
    5.5093    5.7054   37.9578 C   0  0  0  0  0  0  0  0  0  0  0  0
    5.3693    7.2162   37.6174 C   0  0  0  0  0  0  0  0  0  0  0  0
    6.6832    7.8430   37.4984 N   0  0  0  0  0  0  0  0  0  0  0  0
    7.4228    7.8658   38.7515 C   0  0  0  0  0  0  0  0  0  0  0  0
    8.7868    8.3665   38.7257 N   0  0  0  0  0  0  0  0  0  0  0  0
    8.9576    9.7297   38.3743 C   0  0  0  0  0  0  0  0  0  0  0  0
    8.2862   10.7579   39.0349 C   0  0  0  0  0  0  0  0  0  0  0  0
    8.5353   12.0653   38.6471 C   0  0  0  0  0  0  0  0  0  0  0  0
    9.4015   12.4165   37.6727 N   0  0  0  0  0  0  0  0  0  0  0  0
   10.0622   11.4034   37.0650 C   0  0  0  0  0  0  0  0  0  0  0  0
    9.8954   10.0493   37.3632 C   0  0  0  0  0  0  0  0  0  0  0  0
   10.6185    8.9977   36.7414 N   0  0  0  0  0  0  0  0  0  0  0  0
   10.7282    9.0840   35.2740 C   0  0  0  0  0  0  0  0  0  0  0  0
   12.1674    9.2938   34.8155 C   0  0  0  0  0  0  0  0  0  0  0  0
   13.0915    8.1965   35.3319 C   0  0  0  0  0  0  0  0  0  0  0  0
   12.7004    7.7012   36.7248 C   0  0  0  0  0  0  0  0  0  0  0  0
   11.8735    8.7370   37.4801 C   0  0  0  0  0  0  0  0  0  0  0  0
  1  2  1  0
  2  3  1  0
  3  4  1  0
  4  5  2  0
  4  6  1  0
  6  7  1  0
  7  8  1  0
  8  9  1  0
  9 10  1  0
 10 11  1  0
 11 12  1  0
 12 13  1  0
 13 14  1  0
 14 15  1  0
 15 16  1  0
 16 17  1  0
 17 18  2  0
 18 19  1  0
 19 20  2  0
 20 21  1  0
 21 22  2  0
 22 23  1  0
 23 24  1  0
 24 25  1  0
 25 26  1  0
 26 27  1  0
 27 28  1  0
  7  2  1  0
 13  8  1  0
 22 17  1  0
 28 23  1  0
M  END
$$$$
