
     RDKit          3D

 29 31  0  0  0  0  0  0  0  0999 V2000
   36.5215  -53.2191   21.1490 N   0  0  0  0  0  0  0  0  0  0  0  0
   36.9092  -54.1476   22.2057 C   0  0  0  0  0  0  0  0  0  0  0  0
   35.7678  -54.3978   23.1911 C   0  0  0  0  0  0  0  0  0  0  0  0
   34.5575  -55.0711   22.5359 C   0  0  0  0  0  0  0  0  0  0  0  0
   33.4772  -55.4054   23.5457 C   0  0  0  0  0  0  0  0  0  0  0  0
   33.3898  -56.7321   24.0005 C   0  0  0  0  0  0  0  0  0  0  0  0
   32.4402  -57.0610   24.9512 C   0  0  0  0  0  0  0  0  0  0  0  0
   31.5882  -56.1712   25.4873 N   0  0  0  0  0  0  0  0  0  0  0  0
   31.6953  -54.8936   25.0392 C   0  0  0  0  0  0  0  0  0  0  0  0
   32.5845  -54.4389   24.0550 C   0  0  0  0  0  0  0  0  0  0  0  0
   32.7012  -53.0976   23.6660 N   0  0  0  0  0  0  0  0  0  0  0  0
   31.6835  -52.1213   23.9813 C   0  0  0  0  0  0  0  0  0  0  0  0
   30.5983  -52.3215   23.0527 N   0  0  0  0  0  0  0  0  0  0  0  0
   29.3727  -51.7491   23.4911 C   0  0  0  0  0  0  0  0  0  0  0  0
   29.2510  -50.3775   23.7418 C   0  0  0  0  0  0  0  0  0  0  0  0
   28.0333  -49.8495   24.1712 C   0  0  0  0  0  0  0  0  0  0  0  0
   26.9369  -50.6987   24.3447 C   0  0  0  0  0  0  0  0  0  0  0  0
   25.3814  -50.0316   24.8514 S   0  0  0  0  0  0  0  0  0  0  0  0
   25.4149  -50.2968   26.5091 N   0  0  0  0  0  0  0  0  0  0  0  0
   24.3174  -50.8612   24.3361 O   0  0  0  0  0  0  0  0  0  0  0  0
   25.3955  -48.5967   24.6826 O   0  0  0  0  0  0  0  0  0  0  0  0
   27.0324  -52.0668   24.0692 C   0  0  0  0  0  0  0  0  0  0  0  0
   28.2482  -52.6075   23.6399 C   0  0  0  0  0  0  0  0  0  0  0  0
   28.4113  -53.9783   23.3262 N   0  0  0  0  0  0  0  0  0  0  0  0
   27.9005  -54.9415   24.3200 C   0  0  0  0  0  0  0  0  0  0  0  0
   26.7122  -55.7356   23.7865 C   0  0  0  0  0  0  0  0  0  0  0  0
   27.0668  -56.4866   22.5028 C   0  0  0  0  0  0  0  0  0  0  0  0
   28.0898  -55.7405   21.6438 C   0  0  0  0  0  0  0  0  0  0  0  0
   28.0591  -54.2397   21.9150 C   0  0  0  0  0  0  0  0  0  0  0  0
  1  2  1  0
  2  3  1  0
  3  4  1  0
  4  5  1  0
  5  6  2  0
  6  7  1  0
  7  8  2  0
  8  9  1  0
  9 10  2  0
 10 11  1  0
 11 12  1  0
 12 13  1  0
 13 14  1  0
 14 15  2  0
 15 16  1  0
 16 17  2  0
 17 18  1  0
 18 19  1  0
 18 20  2  0
 18 21  2  0
 17 22  1  0
 22 23  2  0
 23 24  1  0
 24 25  1  0
 25 26  1  0
 26 27  1  0
 27 28  1  0
 28 29  1  0
 10  5  1  0
 23 14  1  0
 29 24  1  0
M  END
$$$$
