
     RDKit          3D

 22 24  0  0  0  0  0  0  0  0999 V2000
    8.5346   12.1055  -27.4681 N   0  0  0  0  0  0  0  0  0  0  0  0
    8.5039   11.4898  -28.8029 C   0  0  0  0  0  0  0  0  0  0  0  0
    9.8973   11.4956  -29.4147 C   0  0  0  0  0  0  0  0  0  0  0  0
   10.6723   12.4454  -29.3001 O   0  0  0  0  0  0  0  0  0  0  0  0
   10.2790   10.3621  -30.2785 C   0  0  0  0  0  0  0  0  0  0  0  0
   10.3765   10.6489  -31.6446 C   0  0  0  0  0  0  0  0  0  0  0  0
   10.7644    9.6336  -32.4940 C   0  0  0  0  0  0  0  0  0  0  0  0
   11.0576    8.3894  -32.0724 N   0  0  0  0  0  0  0  0  0  0  0  0
   10.9802    8.1592  -30.7376 C   0  0  0  0  0  0  0  0  0  0  0  0
   10.6017    9.0928  -29.7674 C   0  0  0  0  0  0  0  0  0  0  0  0
   10.5691    8.7968  -28.3919 N   0  0  0  0  0  0  0  0  0  0  0  0
    9.3616    8.0739  -27.9620 C   0  0  0  0  0  0  0  0  0  0  0  0
    9.4701    6.5654  -28.1563 C   0  0  0  0  0  0  0  0  0  0  0  0
   10.8275    6.0103  -27.7492 C   0  0  0  0  0  0  0  0  0  0  0  0
   11.6514    7.0349  -26.9817 C   0  0  0  0  0  0  0  0  0  0  0  0
   11.8684    8.3577  -27.7799 C   0  0  0  0  0  0  0  0  0  0  0  0
   12.5783    9.2775  -26.8582 N   0  0  0  0  0  0  0  0  0  0  0  0
   12.4279   10.6864  -27.2578 C   0  0  0  0  0  0  0  0  0  0  0  0
   13.4093   11.6468  -26.5666 C   0  0  0  0  0  0  0  0  0  0  0  0
   13.9253   11.0757  -25.2557 C   0  0  0  0  0  0  0  0  0  0  0  0
   14.5762    9.7116  -25.4854 C   0  0  0  0  0  0  0  0  0  0  0  0
   14.0038    8.9670  -26.7005 C   0  0  0  0  0  0  0  0  0  0  0  0
  1  2  1  0
  2  3  1  0
  3  4  2  0
  3  5  1  0
  5  6  2  0
  6  7  1  0
  7  8  2  0
  8  9  1  0
  9 10  2  0
 10 11  1  0
 11 12  1  0
 12 13  1  0
 13 14  1  0
 14 15  1  0
 15 16  1  0
 16 17  1  0
 17 18  1  0
 18 19  1  0
 19 20  1  0
 20 21  1  0
 21 22  1  0
 10  5  1  0
 16 11  1  0
 22 17  1  0
M  END
$$$$
