
     RDKit          3D

 26 28  0  0  0  0  0  0  0  0999 V2000
    4.6110   19.9646  -40.6853 C   0  0  0  0  0  0  0  0  0  0  0  0
    3.7131   19.5533  -39.6601 O   0  0  0  0  0  0  0  0  0  0  0  0
    4.3725   18.7539  -38.6701 C   0  0  0  0  0  0  0  0  0  0  0  0
    3.3093   17.8664  -38.0039 C   0  0  0  0  0  0  0  0  0  0  0  0
    2.6668   18.4792  -36.7640 C   0  0  0  0  0  0  0  0  0  0  0  0
    2.7710   19.9947  -36.7835 C   0  0  0  0  0  0  0  0  0  0  0  0
    4.2583   20.4389  -36.7795 C   0  0  0  0  0  0  0  0  0  0  0  0
    4.3939   21.9112  -36.8272 N   0  0  0  0  0  0  0  0  0  0  0  0
    3.9153   22.5337  -38.0639 C   0  0  0  0  0  0  0  0  0  0  0  0
    4.0467   24.0552  -37.9907 C   0  0  0  0  0  0  0  0  0  0  0  0
    3.2086   24.6450  -36.8575 C   0  0  0  0  0  0  0  0  0  0  0  0
    2.8609   23.6096  -35.7912 C   0  0  0  0  0  0  0  0  0  0  0  0
    3.9884   22.5973  -35.5955 C   0  0  0  0  0  0  0  0  0  0  0  0
    5.0630   19.6309  -37.7284 N   0  0  0  0  0  0  0  0  0  0  0  0
    6.3115   19.1905  -37.2302 C   0  0  0  0  0  0  0  0  0  0  0  0
    6.5646   17.8606  -36.8691 C   0  0  0  0  0  0  0  0  0  0  0  0
    7.7342   17.3791  -36.3842 N   0  0  0  0  0  0  0  0  0  0  0  0
    8.7318   18.2705  -36.2547 C   0  0  0  0  0  0  0  0  0  0  0  0
    8.6128   19.6117  -36.5749 C   0  0  0  0  0  0  0  0  0  0  0  0
    7.3873   20.0999  -37.0430 C   0  0  0  0  0  0  0  0  0  0  0  0
    7.2474   21.4339  -37.4900 N   0  0  0  0  0  0  0  0  0  0  0  0
    7.9466   22.5025  -36.7751 C   0  0  0  0  0  0  0  0  0  0  0  0
    9.1057   23.0125  -37.6202 C   0  0  0  0  0  0  0  0  0  0  0  0
    9.8189   24.1488  -36.9318 C   0  0  0  0  0  0  0  0  0  0  0  0
   10.8387   24.6916  -37.6589 N   0  0  0  0  0  0  0  0  0  0  0  0
    9.5498   24.5710  -35.8146 O   0  0  0  0  0  0  0  0  0  0  0  0
  1  2  1  0
  2  3  1  0
  3  4  1  0
  4  5  1  0
  5  6  1  0
  6  7  1  0
  7  8  1  0
  8  9  1  0
  9 10  1  0
 10 11  1  0
 11 12  1  0
 12 13  1  0
  7 14  1  0
 14 15  1  0
 15 16  2  0
 16 17  1  0
 17 18  2  0
 18 19  1  0
 19 20  2  0
 20 21  1  0
 21 22  1  0
 22 23  1  0
 23 24  1  0
 24 25  1  0
 24 26  2  0
 14  3  1  0
 20 15  1  0
 13  8  1  0
M  END
$$$$
