
     RDKit          3D

 23 25  0  0  0  0  0  0  0  0999 V2000
    1.2115  -15.9717   -1.2081 N   0  0  0  0  0  0  0  0  0  0  0  0
    0.6607  -14.7550   -1.7957 C   0  0  0  0  0  0  0  0  0  0  0  0
    1.5699  -14.1552   -2.8696 C   0  0  0  0  0  0  0  0  0  0  0  0
    1.6639  -15.0159   -4.1346 C   0  0  0  0  0  0  0  0  0  0  0  0
    2.6108  -14.4207   -5.1581 C   0  0  0  0  0  0  0  0  0  0  0  0
    2.1878  -13.2881   -5.8737 C   0  0  0  0  0  0  0  0  0  0  0  0
    3.0572  -12.6878   -6.7680 C   0  0  0  0  0  0  0  0  0  0  0  0
    4.3071  -13.1255   -6.9989 N   0  0  0  0  0  0  0  0  0  0  0  0
    4.6990  -14.2169   -6.2948 C   0  0  0  0  0  0  0  0  0  0  0  0
    3.9112  -14.9244   -5.3751 C   0  0  0  0  0  0  0  0  0  0  0  0
    4.3437  -16.0949   -4.7211 N   0  0  0  0  0  0  0  0  0  0  0  0
    3.8804  -17.3094   -5.4190 C   0  0  0  0  0  0  0  0  0  0  0  0
    3.8933  -18.4695   -4.4346 C   0  0  0  0  0  0  0  0  0  0  0  0
    3.2042  -19.4772   -4.5950 O   0  0  0  0  0  0  0  0  0  0  0  0
    4.8145  -18.3217   -3.2458 C   0  0  0  0  0  0  0  0  0  0  0  0
    6.0581  -17.5575   -3.6833 C   0  0  0  0  0  0  0  0  0  0  0  0
    5.7478  -16.1318   -4.2438 C   0  0  0  0  0  0  0  0  0  0  0  0
    6.1782  -15.0730   -3.3261 N   0  0  0  0  0  0  0  0  0  0  0  0
    5.5347  -15.0855   -2.0199 C   0  0  0  0  0  0  0  0  0  0  0  0
    5.6916  -13.7171   -1.3469 C   0  0  0  0  0  0  0  0  0  0  0  0
    7.0699  -13.0869   -1.5651 C   0  0  0  0  0  0  0  0  0  0  0  0
    8.0907  -14.1248   -2.0104 C   0  0  0  0  0  0  0  0  0  0  0  0
    7.6251  -14.8598   -3.2744 C   0  0  0  0  0  0  0  0  0  0  0  0
  1  2  1  0
  2  3  1  0
  3  4  1  0
  4  5  1  0
  5  6  2  0
  6  7  1  0
  7  8  2  0
  8  9  1  0
  9 10  2  0
 10 11  1  0
 11 12  1  0
 12 13  1  0
 13 14  2  0
 13 15  1  0
 15 16  1  0
 16 17  1  0
 17 18  1  0
 18 19  1  0
 19 20  1  0
 20 21  1  0
 21 22  1  0
 22 23  1  0
 10  5  1  0
 17 11  1  0
 23 18  1  0
M  END
$$$$
