
     RDKit          3D

 23 25  0  0  0  0  0  0  0  0999 V2000
   41.3378   -1.3022   -9.6186 C   0  0  0  0  0  0  0  0  0  0  0  0
   42.4820   -1.9976   -9.1387 O   0  0  0  0  0  0  0  0  0  0  0  0
   43.2812   -1.3308   -8.2512 C   0  0  0  0  0  0  0  0  0  0  0  0
   43.1633    0.0057   -7.8891 C   0  0  0  0  0  0  0  0  0  0  0  0
   44.0549    0.5553   -6.9653 C   0  0  0  0  0  0  0  0  0  0  0  0
   45.0736   -0.2199   -6.3747 C   0  0  0  0  0  0  0  0  0  0  0  0
   45.9762    0.4259   -5.3445 C   0  0  0  0  0  0  0  0  0  0  0  0
   45.2304    0.9164   -4.1790 N   0  0  0  0  0  0  0  0  0  0  0  0
   45.2209   -1.5676   -6.7646 C   0  0  0  0  0  0  0  0  0  0  0  0
   46.2797   -2.3491   -6.2581 N   0  0  0  0  0  0  0  0  0  0  0  0
   45.8670   -3.5782   -5.5610 C   0  0  0  0  0  0  0  0  0  0  0  0
   45.9401   -4.8125   -6.4411 C   0  0  0  0  0  0  0  0  0  0  0  0
   45.1627   -5.7598   -6.3102 O   0  0  0  0  0  0  0  0  0  0  0  0
   47.0407   -4.8539   -7.4713 C   0  0  0  0  0  0  0  0  0  0  0  0
   48.0918   -3.8005   -7.1524 C   0  0  0  0  0  0  0  0  0  0  0  0
   47.4636   -2.3814   -7.1553 C   0  0  0  0  0  0  0  0  0  0  0  0
   48.4760   -1.3361   -6.9483 N   0  0  0  0  0  0  0  0  0  0  0  0
   49.2890   -1.4732   -5.7486 C   0  0  0  0  0  0  0  0  0  0  0  0
   49.9470   -0.1321   -5.4002 C   0  0  0  0  0  0  0  0  0  0  0  0
   50.3987    0.6599   -6.6301 C   0  0  0  0  0  0  0  0  0  0  0  0
   50.5519   -0.2483   -7.8422 C   0  0  0  0  0  0  0  0  0  0  0  0
   49.2459   -0.9967   -8.1462 C   0  0  0  0  0  0  0  0  0  0  0  0
   44.3078   -2.1009   -7.6957 C   0  0  0  0  0  0  0  0  0  0  0  0
  1  2  1  0
  2  3  1  0
  3  4  2  0
  4  5  1  0
  5  6  2  0
  6  7  1  0
  7  8  1  0
  6  9  1  0
  9 10  1  0
 10 11  1  0
 11 12  1  0
 12 13  2  0
 12 14  1  0
 14 15  1  0
 15 16  1  0
 16 17  1  0
 17 18  1  0
 18 19  1  0
 19 20  1  0
 20 21  1  0
 21 22  1  0
  9 23  2  0
 23  3  1  0
 16 10  1  0
 22 17  1  0
M  END
$$$$
