
     RDKit          3D

 15 16  0  0  0  0  0  0  0  0999 V2000
   53.3337    2.5711  -13.2811 N   0  0  0  0  0  0  0  0  0  0  0  0
   52.6469    1.7575  -12.4307 C   0  0  0  0  0  0  0  0  0  0  0  0
   52.3045    2.1656  -11.3261 O   0  0  0  0  0  0  0  0  0  0  0  0
   52.3332    0.3687  -12.8991 C   0  0  0  0  0  0  0  0  0  0  0  0
   51.4585   -0.3687  -12.0779 C   0  0  0  0  0  0  0  0  0  0  0  0
   51.0865   -1.6706  -12.4090 C   0  0  0  0  0  0  0  0  0  0  0  0
   51.5874   -2.2563  -13.5643 C   0  0  0  0  0  0  0  0  0  0  0  0
   52.4601   -1.5411  -14.3878 C   0  0  0  0  0  0  0  0  0  0  0  0
   52.8506   -0.2199  -14.0814 C   0  0  0  0  0  0  0  0  0  0  0  0
   53.7631    0.4775  -14.9253 N   0  0  0  0  0  0  0  0  0  0  0  0
   53.2816    0.5918  -16.3176 C   0  0  0  0  0  0  0  0  0  0  0  0
   54.2171    1.5243  -17.0887 C   0  0  0  0  0  0  0  0  0  0  0  0
   55.6628    1.0335  -17.0198 C   0  0  0  0  0  0  0  0  0  0  0  0
   56.1000    0.8172  -15.5715 C   0  0  0  0  0  0  0  0  0  0  0  0
   55.1232   -0.0937  -14.8263 C   0  0  0  0  0  0  0  0  0  0  0  0
  1  2  1  0
  2  3  2  0
  2  4  1  0
  4  5  2  0
  5  6  1  0
  6  7  2  0
  7  8  1  0
  8  9  2  0
  9 10  1  0
 10 11  1  0
 11 12  1  0
 12 13  1  0
 13 14  1  0
 14 15  1  0
  9  4  1  0
 15 10  1  0
M  END
$$$$
