
     RDKit          3D

 16 17  0  0  0  0  0  0  0  0999 V2000
   19.2522  -14.7411  -20.4928 N   0  0  0  0  0  0  0  0  0  0  0  0
   19.8138  -15.8319  -19.7076 C   0  0  0  0  0  0  0  0  0  0  0  0
   18.7174  -16.5195  -18.8971 C   0  0  0  0  0  0  0  0  0  0  0  0
   19.2999  -17.6016  -17.9970 C   0  0  0  0  0  0  0  0  0  0  0  0
   18.2324  -18.4902  -17.3889 C   0  0  0  0  0  0  0  0  0  0  0  0
   18.1837  -19.6898  -17.6759 O   0  0  0  0  0  0  0  0  0  0  0  0
   17.2567  -17.8659  -16.4081 C   0  0  0  0  0  0  0  0  0  0  0  0
   15.9509  -17.5225  -17.0461 C   0  0  0  0  0  0  0  0  0  0  0  0
   15.0840  -18.4084  -17.6582 C   0  0  0  0  0  0  0  0  0  0  0  0
   13.9991  -17.7120  -18.1128 N   0  0  0  0  0  0  0  0  0  0  0  0
   14.1266  -16.3793  -17.8016 C   0  0  0  0  0  0  0  0  0  0  0  0
   13.2644  -15.3079  -18.0643 C   0  0  0  0  0  0  0  0  0  0  0  0
   13.6523  -14.0400  -17.6235 C   0  0  0  0  0  0  0  0  0  0  0  0
   14.8540  -13.8544  -16.9458 C   0  0  0  0  0  0  0  0  0  0  0  0
   15.7037  -14.9372  -16.6902 C   0  0  0  0  0  0  0  0  0  0  0  0
   15.3391  -16.2284  -17.1268 C   0  0  0  0  0  0  0  0  0  0  0  0
  1  2  1  0
  2  3  1  0
  3  4  1  0
  4  5  1  0
  5  6  2  0
  5  7  1  0
  7  8  1  0
  8  9  2  0
  9 10  1  0
 10 11  1  0
 11 12  2  0
 12 13  1  0
 13 14  2  0
 14 15  1  0
 15 16  2  0
 16  8  1  0
 16 11  1  0
M  END
$$$$
