
     RDKit          3D

 26 29  0  0  0  0  0  0  0  0999 V2000
   -3.8685   12.6038   -3.6390 N   0  0  0  0  0  0  0  0  0  0  0  0
   -4.1444   11.5360   -4.5276 C   0  0  0  0  0  0  0  0  0  0  0  0
   -4.4864   10.2862   -4.0090 C   0  0  0  0  0  0  0  0  0  0  0  0
   -4.7476    9.2503   -4.8898 C   0  0  0  0  0  0  0  0  0  0  0  0
   -4.7201    9.3808   -6.2298 N   0  0  0  0  0  0  0  0  0  0  0  0
   -4.4706   10.6265   -6.7019 C   0  0  0  0  0  0  0  0  0  0  0  0
   -4.2135   11.7560   -5.9182 C   0  0  0  0  0  0  0  0  0  0  0  0
   -4.0571   13.0035   -6.5135 N   0  0  0  0  0  0  0  0  0  0  0  0
   -4.8789   14.1221   -6.0412 C   0  0  0  0  0  0  0  0  0  0  0  0
   -5.1755   15.0692   -7.2001 C   0  0  0  0  0  0  0  0  0  0  0  0
   -6.2309   15.7034   -7.2728 O   0  0  0  0  0  0  0  0  0  0  0  0
   -4.0491   15.3403   -8.1798 C   0  0  0  0  0  0  0  0  0  0  0  0
   -3.2634   14.0765   -8.5205 C   0  0  0  0  0  0  0  0  0  0  0  0
   -2.8337   13.2891   -7.2720 C   0  0  0  0  0  0  0  0  0  0  0  0
   -1.7570   14.0617   -6.4462 C   0  0  0  0  0  0  0  0  0  0  0  0
   -1.4015   13.4003   -5.1826 N   0  0  0  0  0  0  0  0  0  0  0  0
   -0.1991   13.9571   -4.5620 C   0  0  0  0  0  0  0  0  0  0  0  0
    1.0277   13.4569   -5.2549 C   0  0  0  0  0  0  0  0  0  0  0  0
    1.8709   14.1905   -6.0699 C   0  0  0  0  0  0  0  0  0  0  0  0
    2.8774   13.3702   -6.5024 N   0  0  0  0  0  0  0  0  0  0  0  0
    2.7183   12.1071   -5.9840 C   0  0  0  0  0  0  0  0  0  0  0  0
    3.4996   10.9580   -6.1547 C   0  0  0  0  0  0  0  0  0  0  0  0
    3.0951    9.7950   -5.4934 C   0  0  0  0  0  0  0  0  0  0  0  0
    1.9562    9.7849   -4.6923 C   0  0  0  0  0  0  0  0  0  0  0  0
    1.1874   10.9433   -4.5313 C   0  0  0  0  0  0  0  0  0  0  0  0
    1.5711   12.1301   -5.1907 C   0  0  0  0  0  0  0  0  0  0  0  0
  1  2  1  0
  2  3  2  0
  3  4  1  0
  4  5  2  0
  5  6  1  0
  6  7  2  0
  7  8  1  0
  8  9  1  0
  9 10  1  0
 10 11  2  0
 10 12  1  0
 12 13  1  0
 13 14  1  0
 14 15  1  0
 15 16  1  0
 16 17  1  0
 17 18  1  0
 18 19  2  0
 19 20  1  0
 20 21  1  0
 21 22  2  0
 22 23  1  0
 23 24  2  0
 24 25  1  0
 25 26  2  0
  7  2  1  0
 14  8  1  0
 26 18  1  0
 26 21  1  0
M  END
$$$$
