
     RDKit          3D

 19 20  0  0  0  0  0  0  0  0999 V2000
   -7.2182  -22.4913   38.9865 N   0  0  0  0  0  0  0  0  0  0  0  0
   -6.7112  -23.0090   37.7211 C   0  0  0  0  0  0  0  0  0  0  0  0
   -6.6811  -21.9301   36.6489 C   0  0  0  0  0  0  0  0  0  0  0  0
   -8.0732  -21.5496   36.1886 C   0  0  0  0  0  0  0  0  0  0  0  0
   -8.8300  -22.3698   35.6649 O   0  0  0  0  0  0  0  0  0  0  0  0
   -8.5019  -20.1226   36.3785 C   0  0  0  0  0  0  0  0  0  0  0  0
   -8.9376  -19.8155   37.7842 C   0  0  0  0  0  0  0  0  0  0  0  0
   -8.1441  -19.3394   38.5992 O   0  0  0  0  0  0  0  0  0  0  0  0
  -10.3678  -20.1314   38.1609 C   0  0  0  0  0  0  0  0  0  0  0  0
  -10.4598  -21.4372   38.9360 C   0  0  0  0  0  0  0  0  0  0  0  0
  -11.8801  -21.8237   39.2007 C   0  0  0  0  0  0  0  0  0  0  0  0
  -12.6267  -21.5038   40.3174 C   0  0  0  0  0  0  0  0  0  0  0  0
  -13.8770  -22.0401   40.1658 N   0  0  0  0  0  0  0  0  0  0  0  0
  -13.9687  -22.7051   38.9656 C   0  0  0  0  0  0  0  0  0  0  0  0
  -15.0457  -23.3941   38.3947 C   0  0  0  0  0  0  0  0  0  0  0  0
  -14.8465  -23.9844   37.1431 C   0  0  0  0  0  0  0  0  0  0  0  0
  -13.6193  -23.8883   36.4914 C   0  0  0  0  0  0  0  0  0  0  0  0
  -12.5531  -23.1955   37.0764 C   0  0  0  0  0  0  0  0  0  0  0  0
  -12.7282  -22.5905   38.3382 C   0  0  0  0  0  0  0  0  0  0  0  0
  1  2  1  0
  2  3  1  0
  3  4  1  0
  4  5  2  0
  4  6  1  0
  6  7  1  0
  7  8  2  0
  7  9  1  0
  9 10  1  0
 10 11  1  0
 11 12  2  0
 12 13  1  0
 13 14  1  0
 14 15  2  0
 15 16  1  0
 16 17  2  0
 17 18  1  0
 18 19  2  0
 19 11  1  0
 19 14  1  0
M  END
$$$$
