
     RDKit          3D

 26 28  0  0  0  0  0  0  0  0999 V2000
  -18.9305   18.2396   33.0296 C   0  0  0  0  0  0  0  0  0  0  0  0
  -17.5870   18.4538   32.5163 N   0  0  0  0  0  0  0  0  0  0  0  0
  -16.5386   17.9570   33.4206 C   0  0  0  0  0  0  0  0  0  0  0  0
  -16.4150   16.4473   33.4695 C   0  0  0  0  0  0  0  0  0  0  0  0
  -17.1310   15.7371   34.4519 C   0  0  0  0  0  0  0  0  0  0  0  0
  -17.0552   14.3457   34.5400 C   0  0  0  0  0  0  0  0  0  0  0  0
  -16.2683   13.6396   33.6380 C   0  0  0  0  0  0  0  0  0  0  0  0
  -16.0847   12.2838   33.6219 O   0  0  0  0  0  0  0  0  0  0  0  0
  -16.9300   11.5151   34.4699 C   0  0  0  0  0  0  0  0  0  0  0  0
  -15.5534   14.3382   32.6601 C   0  0  0  0  0  0  0  0  0  0  0  0
  -15.5911   15.7398   32.5688 C   0  0  0  0  0  0  0  0  0  0  0  0
  -14.8611   16.4216   31.5990 N   0  0  0  0  0  0  0  0  0  0  0  0
  -15.5492   16.4771   30.2979 C   0  0  0  0  0  0  0  0  0  0  0  0
  -14.6035   16.2033   29.1277 C   0  0  0  0  0  0  0  0  0  0  0  0
  -13.6629   15.0476   29.4406 C   0  0  0  0  0  0  0  0  0  0  0  0
  -12.8495   15.2780   30.7244 C   0  0  0  0  0  0  0  0  0  0  0  0
  -13.3833   16.4458   31.5937 C   0  0  0  0  0  0  0  0  0  0  0  0
  -12.5873   16.7838   32.7948 N   0  0  0  0  0  0  0  0  0  0  0  0
  -11.2444   17.2867   32.4860 C   0  0  0  0  0  0  0  0  0  0  0  0
  -10.6028   17.9564   33.7020 C   0  0  0  0  0  0  0  0  0  0  0  0
  -10.5756   17.0302   34.9084 C   0  0  0  0  0  0  0  0  0  0  0  0
  -11.9704   16.4799   35.1869 C   0  0  0  0  0  0  0  0  0  0  0  0
  -12.6201   15.8540   33.9383 C   0  0  0  0  0  0  0  0  0  0  0  0
  -11.9745   14.4778   33.6800 C   0  0  0  0  0  0  0  0  0  0  0  0
  -12.6184   13.4145   34.2560 N   0  0  0  0  0  0  0  0  0  0  0  0
  -10.9303   14.2848   33.0633 O   0  0  0  0  0  0  0  0  0  0  0  0
  1  2  1  0
  2  3  1  0
  3  4  1  0
  4  5  2  0
  5  6  1  0
  6  7  2  0
  7  8  1  0
  8  9  1  0
  7 10  1  0
 10 11  2  0
 11 12  1  0
 12 13  1  0
 13 14  1  0
 14 15  1  0
 15 16  1  0
 16 17  1  0
 17 18  1  0
 18 19  1  0
 19 20  1  0
 20 21  1  0
 21 22  1  0
 22 23  1  0
 23 24  1  0
 24 25  1  0
 24 26  2  0
 11  4  1  0
 17 12  1  0
 23 18  1  0
M  END
$$$$
