
     RDKit          3D

 19 20  0  0  0  0  0  0  0  0999 V2000
    6.8172   -0.5037  -33.5676 N   0  0  0  0  0  0  0  0  0  0  0  0
    7.3242   -1.0214  -34.8331 C   0  0  0  0  0  0  0  0  0  0  0  0
    7.3542    0.0576  -35.9053 C   0  0  0  0  0  0  0  0  0  0  0  0
    5.9622    0.4380  -36.3655 C   0  0  0  0  0  0  0  0  0  0  0  0
    5.2054   -0.3822  -36.8892 O   0  0  0  0  0  0  0  0  0  0  0  0
    5.5335    1.8650  -36.1757 C   0  0  0  0  0  0  0  0  0  0  0  0
    5.0978    2.1721  -34.7699 C   0  0  0  0  0  0  0  0  0  0  0  0
    5.8913    2.6482  -33.9549 O   0  0  0  0  0  0  0  0  0  0  0  0
    3.6676    1.8562  -34.3932 C   0  0  0  0  0  0  0  0  0  0  0  0
    3.5756    0.5504  -33.6181 C   0  0  0  0  0  0  0  0  0  0  0  0
    2.1553    0.1639  -33.3534 C   0  0  0  0  0  0  0  0  0  0  0  0
    1.4086    0.4838  -32.2367 C   0  0  0  0  0  0  0  0  0  0  0  0
    0.1584   -0.0524  -32.3883 N   0  0  0  0  0  0  0  0  0  0  0  0
    0.0666   -0.7175  -33.5885 C   0  0  0  0  0  0  0  0  0  0  0  0
   -1.0103   -1.4065  -34.1594 C   0  0  0  0  0  0  0  0  0  0  0  0
   -0.8111   -1.9968  -35.4111 C   0  0  0  0  0  0  0  0  0  0  0  0
    0.4161   -1.9007  -36.0627 C   0  0  0  0  0  0  0  0  0  0  0  0
    1.4823   -1.2079  -35.4777 C   0  0  0  0  0  0  0  0  0  0  0  0
    1.3072   -0.6029  -34.2159 C   0  0  0  0  0  0  0  0  0  0  0  0
  1  2  1  0
  2  3  1  0
  3  4  1  0
  4  5  2  0
  4  6  1  0
  6  7  1  0
  7  8  2  0
  7  9  1  0
  9 10  1  0
 10 11  1  0
 11 12  2  0
 12 13  1  0
 13 14  1  0
 14 15  2  0
 15 16  1  0
 16 17  2  0
 17 18  1  0
 18 19  2  0
 19 11  1  0
 19 14  1  0
M  END
$$$$
