
     RDKit          3D

 29 32  0  0  0  0  0  0  0  0999 V2000
  -27.8471  -21.7284   35.6522 N   0  0  0  0  0  0  0  0  0  0  0  0
  -26.5661  -21.4288   34.9950 C   0  0  0  0  0  0  0  0  0  0  0  0
  -25.6404  -22.6374   35.1039 C   0  0  0  0  0  0  0  0  0  0  0  0
  -25.6884  -23.4173   36.0620 O   0  0  0  0  0  0  0  0  0  0  0  0
  -24.6336  -22.8845   34.0315 C   0  0  0  0  0  0  0  0  0  0  0  0
  -24.3717  -24.2308   33.7354 C   0  0  0  0  0  0  0  0  0  0  0  0
  -23.4248  -24.5285   32.7726 C   0  0  0  0  0  0  0  0  0  0  0  0
  -22.7279  -23.5910   32.1035 N   0  0  0  0  0  0  0  0  0  0  0  0
  -22.9831  -22.2963   32.4260 C   0  0  0  0  0  0  0  0  0  0  0  0
  -23.9295  -21.8627   33.3687 C   0  0  0  0  0  0  0  0  0  0  0  0
  -24.1350  -20.4929   33.6777 N   0  0  0  0  0  0  0  0  0  0  0  0
  -24.6632  -19.7823   32.4749 C   0  0  0  0  0  0  0  0  0  0  0  0
  -25.0097  -18.3457   32.8296 C   0  0  0  0  0  0  0  0  0  0  0  0
  -26.0627  -17.8114   32.4839 O   0  0  0  0  0  0  0  0  0  0  0  0
  -23.9217  -17.5743   33.5322 C   0  0  0  0  0  0  0  0  0  0  0  0
  -23.3866  -18.3866   34.7045 C   0  0  0  0  0  0  0  0  0  0  0  0
  -22.9399  -19.8071   34.2767 C   0  0  0  0  0  0  0  0  0  0  0  0
  -22.3665  -20.5672   35.5151 C   0  0  0  0  0  0  0  0  0  0  0  0
  -21.1668  -19.9014   36.0463 N   0  0  0  0  0  0  0  0  0  0  0  0
  -20.1160  -20.8495   36.4324 C   0  0  0  0  0  0  0  0  0  0  0  0
  -19.4646  -21.4140   35.2071 C   0  0  0  0  0  0  0  0  0  0  0  0
  -19.6142  -22.6979   34.7158 C   0  0  0  0  0  0  0  0  0  0  0  0
  -18.8709  -22.8158   33.5707 N   0  0  0  0  0  0  0  0  0  0  0  0
  -18.2186  -21.6373   33.3027 C   0  0  0  0  0  0  0  0  0  0  0  0
  -17.3581  -21.3028   32.2480 C   0  0  0  0  0  0  0  0  0  0  0  0
  -16.8316  -20.0075   32.2290 C   0  0  0  0  0  0  0  0  0  0  0  0
  -17.1507  -19.0864   33.2278 C   0  0  0  0  0  0  0  0  0  0  0  0
  -18.0169  -19.4384   34.2724 C   0  0  0  0  0  0  0  0  0  0  0  0
  -18.5632  -20.7387   34.3151 C   0  0  0  0  0  0  0  0  0  0  0  0
  1  2  1  0
  2  3  1  0
  3  4  2  0
  3  5  1  0
  5  6  2  0
  6  7  1  0
  7  8  2  0
  8  9  1  0
  9 10  2  0
 10 11  1  0
 11 12  1  0
 12 13  1  0
 13 14  2  0
 13 15  1  0
 15 16  1  0
 16 17  1  0
 17 18  1  0
 18 19  1  0
 19 20  1  0
 20 21  1  0
 21 22  2  0
 22 23  1  0
 23 24  1  0
 24 25  2  0
 25 26  1  0
 26 27  2  0
 27 28  1  0
 28 29  2  0
 10  5  1  0
 17 11  1  0
 29 21  1  0
 29 24  1  0
M  END
$$$$
