
     RDKit          3D

 19 20  0  0  0  0  0  0  0  0999 V2000
   24.1017    2.4892  -19.4639 N   0  0  0  0  0  0  0  0  0  0  0  0
   23.4624    3.8041  -19.4755 C   0  0  0  0  0  0  0  0  0  0  0  0
   22.8124    4.1511  -18.1434 C   0  0  0  0  0  0  0  0  0  0  0  0
   21.4832    3.4497  -17.9506 C   0  0  0  0  0  0  0  0  0  0  0  0
   21.3252    2.6328  -17.0401 O   0  0  0  0  0  0  0  0  0  0  0  0
   20.3699    3.7789  -18.9308 C   0  0  0  0  0  0  0  0  0  0  0  0
   18.9924    3.5844  -18.3114 C   0  0  0  0  0  0  0  0  0  0  0  0
   18.7228    4.5808  -17.1974 C   0  0  0  0  0  0  0  0  0  0  0  0
   19.4563    5.5541  -17.0094 O   0  0  0  0  0  0  0  0  0  0  0  0
   17.4889    4.3360  -16.3490 C   0  0  0  0  0  0  0  0  0  0  0  0
   16.2386    4.6196  -17.1107 C   0  0  0  0  0  0  0  0  0  0  0  0
   15.6990    5.8668  -17.3523 C   0  0  0  0  0  0  0  0  0  0  0  0
   14.5594    5.7075  -18.0918 N   0  0  0  0  0  0  0  0  0  0  0  0
   14.3460    4.3791  -18.3551 C   0  0  0  0  0  0  0  0  0  0  0  0
   13.3207    3.7605  -19.0803 C   0  0  0  0  0  0  0  0  0  0  0  0
   13.3552    2.3649  -19.1952 C   0  0  0  0  0  0  0  0  0  0  0  0
   14.3753    1.6245  -18.6063 C   0  0  0  0  0  0  0  0  0  0  0  0
   15.3899    2.2591  -17.8793 C   0  0  0  0  0  0  0  0  0  0  0  0
   15.3795    3.6665  -17.7490 C   0  0  0  0  0  0  0  0  0  0  0  0
  1  2  1  0
  2  3  1  0
  3  4  1  0
  4  5  2  0
  4  6  1  0
  6  7  1  0
  7  8  1  0
  8  9  2  0
  8 10  1  0
 10 11  1  0
 11 12  2  0
 12 13  1  0
 13 14  1  0
 14 15  2  0
 15 16  1  0
 16 17  2  0
 17 18  1  0
 18 19  2  0
 19 11  1  0
 19 14  1  0
M  END
$$$$
