
     RDKit          3D

 27 29  0  0  0  0  0  0  0  0999 V2000
    3.3825  -10.9678   18.9313 N   0  0  0  0  0  0  0  0  0  0  0  0
    4.3394  -10.9840   19.9664 C   0  0  0  0  0  0  0  0  0  0  0  0
    4.1734  -11.9076   21.0039 C   0  0  0  0  0  0  0  0  0  0  0  0
    5.0364  -11.8734   22.0861 C   0  0  0  0  0  0  0  0  0  0  0  0
    6.0230  -10.9712   22.2241 N   0  0  0  0  0  0  0  0  0  0  0  0
    6.1284  -10.0434   21.2429 C   0  0  0  0  0  0  0  0  0  0  0  0
    5.3149   -9.9739   20.1032 C   0  0  0  0  0  0  0  0  0  0  0  0
    5.4889   -8.9076   19.2030 N   0  0  0  0  0  0  0  0  0  0  0  0
    4.4551   -7.8852   19.2768 C   0  0  0  0  0  0  0  0  0  0  0  0
    5.1506   -6.6576   19.4190 O   0  0  0  0  0  0  0  0  0  0  0  0
    3.5438   -7.7990   18.0641 C   0  0  0  0  0  0  0  0  0  0  0  0
    4.2848   -8.1070   16.7918 C   0  0  0  0  0  0  0  0  0  0  0  0
    3.6858   -8.2703   15.7272 O   0  0  0  0  0  0  0  0  0  0  0  0
    5.7821   -8.1845   16.8547 C   0  0  0  0  0  0  0  0  0  0  0  0
    6.1371   -9.2214   17.9167 C   0  0  0  0  0  0  0  0  0  0  0  0
    7.6645   -9.3576   18.0903 C   0  0  0  0  0  0  0  0  0  0  0  0
    8.3880   -8.0498   18.4145 C   0  0  0  0  0  0  0  0  0  0  0  0
    9.7727   -8.2879   18.7776 N   0  0  0  0  0  0  0  0  0  0  0  0
   10.1345   -8.4980   20.0934 C   0  0  0  0  0  0  0  0  0  0  0  0
    9.3449   -8.4363   21.0285 O   0  0  0  0  0  0  0  0  0  0  0  0
   11.5589   -8.8496   20.3428 C   0  0  0  0  0  0  0  0  0  0  0  0
   12.5938   -8.3940   19.5149 C   0  0  0  0  0  0  0  0  0  0  0  0
   13.9178   -8.7487   19.7930 C   0  0  0  0  0  0  0  0  0  0  0  0
   14.2065   -9.5495   20.8983 C   0  0  0  0  0  0  0  0  0  0  0  0
   15.8368   -9.9830   21.2344 Cl  0  0  0  0  0  0  0  0  0  0  0  0
   13.1846   -9.9941   21.7350 C   0  0  0  0  0  0  0  0  0  0  0  0
   11.8612   -9.6401   21.4603 C   0  0  0  0  0  0  0  0  0  0  0  0
  1  2  1  0
  2  3  2  0
  3  4  1  0
  4  5  2  0
  5  6  1  0
  6  7  2  0
  7  8  1  0
  8  9  1  0
  9 10  1  0
  9 11  1  0
 11 12  1  0
 12 13  2  0
 12 14  1  0
 14 15  1  0
 15 16  1  0
 16 17  1  0
 17 18  1  0
 18 19  1  0
 19 20  2  0
 19 21  1  0
 21 22  2  0
 22 23  1  0
 23 24  2  0
 24 25  1  0
 24 26  1  0
 26 27  2  0
  7  2  1  0
 15  8  1  0
 27 21  1  0
M  END
$$$$
