
     RDKit          3D

 19 20  0  0  0  0  0  0  0  0999 V2000
    7.2219  -13.7123    7.0793 N   0  0  0  0  0  0  0  0  0  0  0  0
    6.5826  -12.3974    7.0676 C   0  0  0  0  0  0  0  0  0  0  0  0
    5.9327  -12.0504    8.3998 C   0  0  0  0  0  0  0  0  0  0  0  0
    4.6035  -12.7518    8.5926 C   0  0  0  0  0  0  0  0  0  0  0  0
    4.4455  -13.5687    9.5031 O   0  0  0  0  0  0  0  0  0  0  0  0
    3.4902  -12.4226    7.6124 C   0  0  0  0  0  0  0  0  0  0  0  0
    2.1127  -12.6171    8.2318 C   0  0  0  0  0  0  0  0  0  0  0  0
    1.8430  -11.6206    9.3457 C   0  0  0  0  0  0  0  0  0  0  0  0
    2.5766  -10.6474    9.5338 O   0  0  0  0  0  0  0  0  0  0  0  0
    0.6091  -11.8655   10.1941 C   0  0  0  0  0  0  0  0  0  0  0  0
   -0.6411  -11.5819    9.4325 C   0  0  0  0  0  0  0  0  0  0  0  0
   -1.1807  -10.3347    9.1909 C   0  0  0  0  0  0  0  0  0  0  0  0
   -2.3203  -10.4939    8.4514 N   0  0  0  0  0  0  0  0  0  0  0  0
   -2.5338  -11.8224    8.1881 C   0  0  0  0  0  0  0  0  0  0  0  0
   -3.5590  -12.4410    7.4629 C   0  0  0  0  0  0  0  0  0  0  0  0
   -3.5245  -13.8366    7.3480 C   0  0  0  0  0  0  0  0  0  0  0  0
   -2.5044  -14.5769    7.9369 C   0  0  0  0  0  0  0  0  0  0  0  0
   -1.4898  -13.9424    8.6639 C   0  0  0  0  0  0  0  0  0  0  0  0
   -1.5002  -12.5349    8.7942 C   0  0  0  0  0  0  0  0  0  0  0  0
  1  2  1  0
  2  3  1  0
  3  4  1  0
  4  5  2  0
  4  6  1  0
  6  7  1  0
  7  8  1  0
  8  9  2  0
  8 10  1  0
 10 11  1  0
 11 12  2  0
 12 13  1  0
 13 14  1  0
 14 15  2  0
 15 16  1  0
 16 17  2  0
 17 18  1  0
 18 19  2  0
 19 11  1  0
 19 14  1  0
M  END
$$$$
