
     RDKit          3D

 19 20  0  0  0  0  0  0  0  0999 V2000
   16.2173    0.7429  -15.7659 N   0  0  0  0  0  0  0  0  0  0  0  0
   16.7243    0.2252  -17.0313 C   0  0  0  0  0  0  0  0  0  0  0  0
   16.7543    1.3042  -18.1035 C   0  0  0  0  0  0  0  0  0  0  0  0
   15.3623    1.6846  -18.5638 C   0  0  0  0  0  0  0  0  0  0  0  0
   14.6055    0.8644  -19.0875 O   0  0  0  0  0  0  0  0  0  0  0  0
   14.9336    3.1116  -18.3739 C   0  0  0  0  0  0  0  0  0  0  0  0
   14.4979    3.4187  -16.9682 C   0  0  0  0  0  0  0  0  0  0  0  0
   15.2914    3.8948  -16.1532 O   0  0  0  0  0  0  0  0  0  0  0  0
   13.0677    3.1028  -16.5915 C   0  0  0  0  0  0  0  0  0  0  0  0
   12.9757    1.7970  -15.8164 C   0  0  0  0  0  0  0  0  0  0  0  0
   11.5554    1.4105  -15.5517 C   0  0  0  0  0  0  0  0  0  0  0  0
   10.8087    1.7304  -14.4350 C   0  0  0  0  0  0  0  0  0  0  0  0
    9.5585    1.1942  -14.5866 N   0  0  0  0  0  0  0  0  0  0  0  0
    9.4667    0.5291  -15.7868 C   0  0  0  0  0  0  0  0  0  0  0  0
    8.3898   -0.1599  -16.3577 C   0  0  0  0  0  0  0  0  0  0  0  0
    8.5890   -0.7502  -17.6093 C   0  0  0  0  0  0  0  0  0  0  0  0
    9.8162   -0.6541  -18.2610 C   0  0  0  0  0  0  0  0  0  0  0  0
   10.8824    0.0387  -17.6760 C   0  0  0  0  0  0  0  0  0  0  0  0
   10.7073    0.6437  -16.4142 C   0  0  0  0  0  0  0  0  0  0  0  0
  1  2  1  0
  2  3  1  0
  3  4  1  0
  4  5  2  0
  4  6  1  0
  6  7  1  0
  7  8  2  0
  7  9  1  0
  9 10  1  0
 10 11  1  0
 11 12  2  0
 12 13  1  0
 13 14  1  0
 14 15  2  0
 15 16  1  0
 16 17  2  0
 17 18  1  0
 18 19  2  0
 19 11  1  0
 19 14  1  0
M  END
$$$$
