
     RDKit          3D

 19 20  0  0  0  0  0  0  0  0999 V2000
 -113.8464  -37.5711   60.5015 N   0  0  0  0  0  0  0  0  0  0  0  0
 -114.4857  -36.2562   60.4899 C   0  0  0  0  0  0  0  0  0  0  0  0
 -115.1357  -35.9092   61.8220 C   0  0  0  0  0  0  0  0  0  0  0  0
 -116.4649  -36.6105   62.0149 C   0  0  0  0  0  0  0  0  0  0  0  0
 -116.6229  -37.4275   62.9254 O   0  0  0  0  0  0  0  0  0  0  0  0
 -117.5782  -36.2813   61.0347 C   0  0  0  0  0  0  0  0  0  0  0  0
 -118.9557  -36.4759   61.6540 C   0  0  0  0  0  0  0  0  0  0  0  0
 -119.2253  -35.4794   62.7680 C   0  0  0  0  0  0  0  0  0  0  0  0
 -118.4918  -34.5062   62.9560 O   0  0  0  0  0  0  0  0  0  0  0  0
 -120.4592  -35.7243   63.6164 C   0  0  0  0  0  0  0  0  0  0  0  0
 -121.7095  -35.4406   62.8548 C   0  0  0  0  0  0  0  0  0  0  0  0
 -122.2490  -34.1935   62.6131 C   0  0  0  0  0  0  0  0  0  0  0  0
 -123.3887  -34.3527   61.8736 N   0  0  0  0  0  0  0  0  0  0  0  0
 -123.6021  -35.6812   61.6104 C   0  0  0  0  0  0  0  0  0  0  0  0
 -124.6274  -36.2998   60.8852 C   0  0  0  0  0  0  0  0  0  0  0  0
 -124.5929  -37.6954   60.7702 C   0  0  0  0  0  0  0  0  0  0  0  0
 -123.5728  -38.4357   61.3592 C   0  0  0  0  0  0  0  0  0  0  0  0
 -122.5582  -37.8012   62.0862 C   0  0  0  0  0  0  0  0  0  0  0  0
 -122.5686  -36.3937   62.2164 C   0  0  0  0  0  0  0  0  0  0  0  0
  1  2  1  0
  2  3  1  0
  3  4  1  0
  4  5  2  0
  4  6  1  0
  6  7  1  0
  7  8  1  0
  8  9  2  0
  8 10  1  0
 10 11  1  0
 11 12  2  0
 12 13  1  0
 13 14  1  0
 14 15  2  0
 15 16  1  0
 16 17  2  0
 17 18  1  0
 18 19  2  0
 19 11  1  0
 19 14  1  0
M  END
$$$$
