
     RDKit          3D

 16 17  0  0  0  0  0  0  0  0999 V2000
  -52.9403  -28.2041   39.0883 C   0  0  0  0  0  0  0  0  0  0  0  0
  -54.3480  -28.4017   39.1076 O   0  0  0  0  0  0  0  0  0  0  0  0
  -55.0783  -27.5571   39.8974 C   0  0  0  0  0  0  0  0  0  0  0  0
  -54.5752  -26.5319   40.6846 C   0  0  0  0  0  0  0  0  0  0  0  0
  -55.4494  -25.7428   41.4373 C   0  0  0  0  0  0  0  0  0  0  0  0
  -56.8477  -25.9434   41.4161 C   0  0  0  0  0  0  0  0  0  0  0  0
  -57.7208  -25.0391   42.2573 C   0  0  0  0  0  0  0  0  0  0  0  0
  -57.2268  -23.6607   42.3460 N   0  0  0  0  0  0  0  0  0  0  0  0
  -57.3584  -27.0141   40.6531 C   0  0  0  0  0  0  0  0  0  0  0  0
  -58.7019  -27.3993   40.5693 N   0  0  0  0  0  0  0  0  0  0  0  0
  -59.3723  -27.7798   41.8134 C   0  0  0  0  0  0  0  0  0  0  0  0
  -60.6123  -28.6088   41.4750 C   0  0  0  0  0  0  0  0  0  0  0  0
  -61.5241  -27.8633   40.5006 C   0  0  0  0  0  0  0  0  0  0  0  0
  -60.7546  -27.4388   39.2500 C   0  0  0  0  0  0  0  0  0  0  0  0
  -59.5023  -26.6368   39.6075 C   0  0  0  0  0  0  0  0  0  0  0  0
  -56.4555  -27.7870   39.8923 C   0  0  0  0  0  0  0  0  0  0  0  0
  1  2  1  0
  2  3  1  0
  3  4  2  0
  4  5  1  0
  5  6  2  0
  6  7  1  0
  7  8  1  0
  6  9  1  0
  9 10  1  0
 10 11  1  0
 11 12  1  0
 12 13  1  0
 13 14  1  0
 14 15  1  0
  9 16  2  0
 16  3  1  0
 15 10  1  0
M  END
$$$$
