
     RDKit          3D

 19 20  0  0  0  0  0  0  0  0999 V2000
   22.1488   -4.4568  -10.0414 N   0  0  0  0  0  0  0  0  0  0  0  0
   22.6559   -4.9745  -11.3068 C   0  0  0  0  0  0  0  0  0  0  0  0
   22.6859   -3.8956  -12.3790 C   0  0  0  0  0  0  0  0  0  0  0  0
   21.2938   -3.5151  -12.8393 C   0  0  0  0  0  0  0  0  0  0  0  0
   20.5371   -4.3353  -13.3630 O   0  0  0  0  0  0  0  0  0  0  0  0
   20.8652   -2.0881  -12.6494 C   0  0  0  0  0  0  0  0  0  0  0  0
   20.4295   -1.7810  -11.2437 C   0  0  0  0  0  0  0  0  0  0  0  0
   21.2229   -1.3049  -10.4287 O   0  0  0  0  0  0  0  0  0  0  0  0
   18.9992   -2.0969  -10.8670 C   0  0  0  0  0  0  0  0  0  0  0  0
   18.9072   -3.4027  -10.0919 C   0  0  0  0  0  0  0  0  0  0  0  0
   17.4869   -3.7892   -9.8272 C   0  0  0  0  0  0  0  0  0  0  0  0
   16.7403   -3.4693   -8.7105 C   0  0  0  0  0  0  0  0  0  0  0  0
   15.4900   -4.0056   -8.8621 N   0  0  0  0  0  0  0  0  0  0  0  0
   15.3983   -4.6706  -10.0623 C   0  0  0  0  0  0  0  0  0  0  0  0
   14.3214   -5.3596  -10.6332 C   0  0  0  0  0  0  0  0  0  0  0  0
   14.5205   -5.9499  -11.8848 C   0  0  0  0  0  0  0  0  0  0  0  0
   15.7477   -5.8538  -12.5365 C   0  0  0  0  0  0  0  0  0  0  0  0
   16.8139   -5.1610  -11.9515 C   0  0  0  0  0  0  0  0  0  0  0  0
   16.6388   -4.5560  -10.6897 C   0  0  0  0  0  0  0  0  0  0  0  0
  1  2  1  0
  2  3  1  0
  3  4  1  0
  4  5  2  0
  4  6  1  0
  6  7  1  0
  7  8  2  0
  7  9  1  0
  9 10  1  0
 10 11  1  0
 11 12  2  0
 12 13  1  0
 13 14  1  0
 14 15  2  0
 15 16  1  0
 16 17  2  0
 17 18  1  0
 18 19  2  0
 19 11  1  0
 19 14  1  0
M  END
$$$$
