
     RDKit          3D

 22 23  0  0  0  0  0  0  0  0999 V2000
  -29.1743   -5.7336   -1.5749 C   0  0  0  0  0  0  0  0  0  0  0  0
  -29.0892   -6.8666   -0.6621 N   0  0  0  0  0  0  0  0  0  0  0  0
  -27.7405   -7.4404   -0.6652 C   0  0  0  0  0  0  0  0  0  0  0  0
  -27.6866   -8.6272    0.3029 C   0  0  0  0  0  0  0  0  0  0  0  0
  -26.3077   -9.3099    0.3155 C   0  0  0  0  0  0  0  0  0  0  0  0
  -25.1648   -8.4537    0.8348 C   0  0  0  0  0  0  0  0  0  0  0  0
  -25.3230   -7.7968    2.0624 C   0  0  0  0  0  0  0  0  0  0  0  0
  -24.3264   -6.9669    2.5743 C   0  0  0  0  0  0  0  0  0  0  0  0
  -23.1298   -6.7689    1.8795 C   0  0  0  0  0  0  0  0  0  0  0  0
  -22.1075   -5.9873    2.3628 O   0  0  0  0  0  0  0  0  0  0  0  0
  -22.2318   -5.4504    3.6708 C   0  0  0  0  0  0  0  0  0  0  0  0
  -22.9153   -7.4194    0.6346 C   0  0  0  0  0  0  0  0  0  0  0  0
  -21.7078   -7.2758   -0.1101 N   0  0  0  0  0  0  0  0  0  0  0  0
  -21.1945   -5.9133   -0.2951 C   0  0  0  0  0  0  0  0  0  0  0  0
  -20.2443   -5.9283   -1.4984 C   0  0  0  0  0  0  0  0  0  0  0  0
  -19.3712   -7.1886   -1.5505 C   0  0  0  0  0  0  0  0  0  0  0  0
  -19.2980   -7.8838   -0.1942 C   0  0  0  0  0  0  0  0  0  0  0  0
  -20.6912   -8.2547    0.3321 C   0  0  0  0  0  0  0  0  0  0  0  0
  -23.9367   -8.2945    0.1458 C   0  0  0  0  0  0  0  0  0  0  0  0
  -23.7004   -9.0859   -1.1002 C   0  0  0  0  0  0  0  0  0  0  0  0
  -23.1930   -8.4041   -2.1712 N   0  0  0  0  0  0  0  0  0  0  0  0
  -23.9223  -10.2897   -1.1628 O   0  0  0  0  0  0  0  0  0  0  0  0
  1  2  1  0
  2  3  1  0
  3  4  1  0
  4  5  1  0
  5  6  1  0
  6  7  2  0
  7  8  1  0
  8  9  2  0
  9 10  1  0
 10 11  1  0
  9 12  1  0
 12 13  1  0
 13 14  1  0
 14 15  1  0
 15 16  1  0
 16 17  1  0
 17 18  1  0
 12 19  2  0
 19 20  1  0
 20 21  1  0
 20 22  2  0
 19  6  1  0
 18 13  1  0
M  END
$$$$
