
     RDKit          3D

 16 17  0  0  0  0  0  0  0  0999 V2000
  -13.6697   22.1515   -0.4696 C   0  0  0  0  0  0  0  0  0  0  0  0
  -14.2168   20.8552   -0.2758 O   0  0  0  0  0  0  0  0  0  0  0  0
  -13.3416   19.8070   -0.1290 C   0  0  0  0  0  0  0  0  0  0  0  0
  -11.9482   19.9457   -0.1735 C   0  0  0  0  0  0  0  0  0  0  0  0
  -11.1134   18.8352   -0.0170 C   0  0  0  0  0  0  0  0  0  0  0  0
  -11.6501   17.5613    0.1874 C   0  0  0  0  0  0  0  0  0  0  0  0
  -10.7517   16.3647    0.3532 C   0  0  0  0  0  0  0  0  0  0  0  0
   -9.9419   16.4702    1.5620 N   0  0  0  0  0  0  0  0  0  0  0  0
  -13.0427   17.4229    0.2338 C   0  0  0  0  0  0  0  0  0  0  0  0
  -13.9041   18.5252    0.0782 C   0  0  0  0  0  0  0  0  0  0  0  0
  -15.2909   18.2380    0.1465 N   0  0  0  0  0  0  0  0  0  0  0  0
  -15.9406   18.8692    1.3058 C   0  0  0  0  0  0  0  0  0  0  0  0
  -17.3534   18.2986    1.4485 C   0  0  0  0  0  0  0  0  0  0  0  0
  -18.1551   18.4816    0.1597 C   0  0  0  0  0  0  0  0  0  0  0  0
  -17.3974   17.9160   -1.0415 C   0  0  0  0  0  0  0  0  0  0  0  0
  -15.9836   18.4957   -1.1256 C   0  0  0  0  0  0  0  0  0  0  0  0
  1  2  1  0
  2  3  1  0
  3  4  2  0
  4  5  1  0
  5  6  2  0
  6  7  1  0
  7  8  1  0
  6  9  1  0
  9 10  2  0
 10 11  1  0
 11 12  1  0
 12 13  1  0
 13 14  1  0
 14 15  1  0
 15 16  1  0
 10  3  1  0
 16 11  1  0
M  END
$$$$
