
     RDKit          3D

 23 25  0  0  0  0  0  0  0  0999 V2000
   -9.4400   38.8952   30.5778 C   0  0  0  0  0  0  0  0  0  0  0  0
   -8.2957   38.1998   31.0577 O   0  0  0  0  0  0  0  0  0  0  0  0
   -7.4965   38.8666   31.9452 C   0  0  0  0  0  0  0  0  0  0  0  0
   -7.6145   40.2031   32.3073 C   0  0  0  0  0  0  0  0  0  0  0  0
   -6.7229   40.7527   33.2311 C   0  0  0  0  0  0  0  0  0  0  0  0
   -5.7042   39.9775   33.8217 C   0  0  0  0  0  0  0  0  0  0  0  0
   -4.8016   40.6233   34.8519 C   0  0  0  0  0  0  0  0  0  0  0  0
   -5.5474   41.1138   36.0174 N   0  0  0  0  0  0  0  0  0  0  0  0
   -5.5569   38.6298   33.4318 C   0  0  0  0  0  0  0  0  0  0  0  0
   -4.4981   37.8483   33.9384 N   0  0  0  0  0  0  0  0  0  0  0  0
   -4.9108   36.6192   34.6354 C   0  0  0  0  0  0  0  0  0  0  0  0
   -4.8376   35.3849   33.7553 C   0  0  0  0  0  0  0  0  0  0  0  0
   -5.6150   34.4376   33.8863 O   0  0  0  0  0  0  0  0  0  0  0  0
   -3.7370   35.3435   32.7251 C   0  0  0  0  0  0  0  0  0  0  0  0
   -2.6860   36.3969   33.0440 C   0  0  0  0  0  0  0  0  0  0  0  0
   -3.3142   37.8160   33.0412 C   0  0  0  0  0  0  0  0  0  0  0  0
   -2.3017   38.8613   33.2482 N   0  0  0  0  0  0  0  0  0  0  0  0
   -1.4888   38.7242   34.4478 C   0  0  0  0  0  0  0  0  0  0  0  0
   -0.8308   40.0653   34.7962 C   0  0  0  0  0  0  0  0  0  0  0  0
   -0.3791   40.8573   33.5663 C   0  0  0  0  0  0  0  0  0  0  0  0
   -0.2259   39.9491   32.3542 C   0  0  0  0  0  0  0  0  0  0  0  0
   -1.5319   39.2007   32.0502 C   0  0  0  0  0  0  0  0  0  0  0  0
   -6.4699   38.0965   32.5007 C   0  0  0  0  0  0  0  0  0  0  0  0
  1  2  1  0
  2  3  1  0
  3  4  2  0
  4  5  1  0
  5  6  2  0
  6  7  1  0
  7  8  1  0
  6  9  1  0
  9 10  1  0
 10 11  1  0
 11 12  1  0
 12 13  2  0
 12 14  1  0
 14 15  1  0
 15 16  1  0
 16 17  1  0
 17 18  1  0
 18 19  1  0
 19 20  1  0
 20 21  1  0
 21 22  1  0
  9 23  2  0
 23  3  1  0
 16 10  1  0
 22 17  1  0
M  END
$$$$
