
     RDKit          3D

 19 20  0  0  0  0  0  0  0  0999 V2000
   11.3785   -4.4135   -9.0397 N   0  0  0  0  0  0  0  0  0  0  0  0
   11.8855   -4.9312  -10.3051 C   0  0  0  0  0  0  0  0  0  0  0  0
   11.9155   -3.8523  -11.3773 C   0  0  0  0  0  0  0  0  0  0  0  0
   10.5235   -3.4718  -11.8375 C   0  0  0  0  0  0  0  0  0  0  0  0
    9.7667   -4.2920  -12.3612 O   0  0  0  0  0  0  0  0  0  0  0  0
   10.0948   -2.0448  -11.6477 C   0  0  0  0  0  0  0  0  0  0  0  0
    9.6591   -1.7377  -10.2420 C   0  0  0  0  0  0  0  0  0  0  0  0
   10.4526   -1.2616   -9.4270 O   0  0  0  0  0  0  0  0  0  0  0  0
    8.2289   -2.0536   -9.8653 C   0  0  0  0  0  0  0  0  0  0  0  0
    8.1368   -3.3594   -9.0902 C   0  0  0  0  0  0  0  0  0  0  0  0
    6.7166   -3.7459   -8.8255 C   0  0  0  0  0  0  0  0  0  0  0  0
    5.9699   -3.4260   -7.7087 C   0  0  0  0  0  0  0  0  0  0  0  0
    4.7197   -3.9623   -7.8604 N   0  0  0  0  0  0  0  0  0  0  0  0
    4.6279   -4.6273   -9.0606 C   0  0  0  0  0  0  0  0  0  0  0  0
    3.5510   -5.3163   -9.6315 C   0  0  0  0  0  0  0  0  0  0  0  0
    3.7502   -5.9066  -10.8831 C   0  0  0  0  0  0  0  0  0  0  0  0
    4.9774   -5.8105  -11.5347 C   0  0  0  0  0  0  0  0  0  0  0  0
    6.0436   -5.1177  -10.9498 C   0  0  0  0  0  0  0  0  0  0  0  0
    5.8684   -4.5128   -9.6880 C   0  0  0  0  0  0  0  0  0  0  0  0
  1  2  1  0
  2  3  1  0
  3  4  1  0
  4  5  2  0
  4  6  1  0
  6  7  1  0
  7  8  2  0
  7  9  1  0
  9 10  1  0
 10 11  1  0
 11 12  2  0
 12 13  1  0
 13 14  1  0
 14 15  2  0
 15 16  1  0
 16 17  2  0
 17 18  1  0
 18 19  2  0
 19 11  1  0
 19 14  1  0
M  END
$$$$
