
     RDKit          3D

 19 20  0  0  0  0  0  0  0  0999 V2000
  -31.5406   -7.1837   11.3532 N   0  0  0  0  0  0  0  0  0  0  0  0
  -31.0335   -7.7014   10.0877 C   0  0  0  0  0  0  0  0  0  0  0  0
  -31.0035   -6.6224    9.0155 C   0  0  0  0  0  0  0  0  0  0  0  0
  -32.3956   -6.2420    8.5553 C   0  0  0  0  0  0  0  0  0  0  0  0
  -33.1523   -7.0622    8.0316 O   0  0  0  0  0  0  0  0  0  0  0  0
  -32.8242   -4.8150    8.7451 C   0  0  0  0  0  0  0  0  0  0  0  0
  -33.2599   -4.5079   10.1509 C   0  0  0  0  0  0  0  0  0  0  0  0
  -32.4665   -4.0318   10.9659 O   0  0  0  0  0  0  0  0  0  0  0  0
  -34.6901   -4.8238   10.5276 C   0  0  0  0  0  0  0  0  0  0  0  0
  -34.7822   -6.1296   11.3027 C   0  0  0  0  0  0  0  0  0  0  0  0
  -36.2025   -6.5161   11.5674 C   0  0  0  0  0  0  0  0  0  0  0  0
  -36.9491   -6.1962   12.6841 C   0  0  0  0  0  0  0  0  0  0  0  0
  -38.1994   -6.7324   12.5325 N   0  0  0  0  0  0  0  0  0  0  0  0
  -38.2911   -7.3975   11.3322 C   0  0  0  0  0  0  0  0  0  0  0  0
  -39.3680   -8.0865   10.7613 C   0  0  0  0  0  0  0  0  0  0  0  0
  -39.1688   -8.6768    9.5097 C   0  0  0  0  0  0  0  0  0  0  0  0
  -37.9416   -8.5807    8.8581 C   0  0  0  0  0  0  0  0  0  0  0  0
  -36.8754   -7.8879    9.4430 C   0  0  0  0  0  0  0  0  0  0  0  0
  -37.0506   -7.2829   10.7049 C   0  0  0  0  0  0  0  0  0  0  0  0
  1  2  1  0
  2  3  1  0
  3  4  1  0
  4  5  2  0
  4  6  1  0
  6  7  1  0
  7  8  2  0
  7  9  1  0
  9 10  1  0
 10 11  1  0
 11 12  2  0
 12 13  1  0
 13 14  1  0
 14 15  2  0
 15 16  1  0
 16 17  2  0
 17 18  1  0
 18 19  2  0
 19 11  1  0
 19 14  1  0
M  END
$$$$
