
     RDKit          3D

 22 24  0  0  0  0  0  0  0  0999 V2000
  -17.3224    5.3085   16.9132 N   0  0  0  0  0  0  0  0  0  0  0  0
  -17.3531    4.6927   15.5784 C   0  0  0  0  0  0  0  0  0  0  0  0
  -15.9597    4.6985   14.9667 C   0  0  0  0  0  0  0  0  0  0  0  0
  -15.1847    5.6483   15.0813 O   0  0  0  0  0  0  0  0  0  0  0  0
  -15.5780    3.5650   14.1028 C   0  0  0  0  0  0  0  0  0  0  0  0
  -15.4805    3.8518   12.7367 C   0  0  0  0  0  0  0  0  0  0  0  0
  -15.0927    2.8365   11.8874 C   0  0  0  0  0  0  0  0  0  0  0  0
  -14.7994    1.5924   12.3090 N   0  0  0  0  0  0  0  0  0  0  0  0
  -14.8768    1.3622   13.6437 C   0  0  0  0  0  0  0  0  0  0  0  0
  -15.2553    2.2958   14.6139 C   0  0  0  0  0  0  0  0  0  0  0  0
  -15.2879    1.9997   15.9894 N   0  0  0  0  0  0  0  0  0  0  0  0
  -16.4954    1.2769   16.4194 C   0  0  0  0  0  0  0  0  0  0  0  0
  -16.3869   -0.2316   16.2251 C   0  0  0  0  0  0  0  0  0  0  0  0
  -15.0295   -0.7868   16.6321 C   0  0  0  0  0  0  0  0  0  0  0  0
  -14.2056    0.2378   17.3997 C   0  0  0  0  0  0  0  0  0  0  0  0
  -13.9886    1.5607   16.6014 C   0  0  0  0  0  0  0  0  0  0  0  0
  -13.2787    2.4805   17.5231 N   0  0  0  0  0  0  0  0  0  0  0  0
  -13.4291    3.8893   17.1235 C   0  0  0  0  0  0  0  0  0  0  0  0
  -12.4477    4.8497   17.8147 C   0  0  0  0  0  0  0  0  0  0  0  0
  -11.9317    4.2787   19.1256 C   0  0  0  0  0  0  0  0  0  0  0  0
  -11.2808    2.9145   18.8960 C   0  0  0  0  0  0  0  0  0  0  0  0
  -11.8532    2.1700   17.6808 C   0  0  0  0  0  0  0  0  0  0  0  0
  1  2  1  0
  2  3  1  0
  3  4  2  0
  3  5  1  0
  5  6  2  0
  6  7  1  0
  7  8  2  0
  8  9  1  0
  9 10  2  0
 10 11  1  0
 11 12  1  0
 12 13  1  0
 13 14  1  0
 14 15  1  0
 15 16  1  0
 16 17  1  0
 17 18  1  0
 18 19  1  0
 19 20  1  0
 20 21  1  0
 21 22  1  0
 10  5  1  0
 16 11  1  0
 22 17  1  0
M  END
$$$$
