
     RDKit          3D

 28 31  0  0  0  0  0  0  0  0999 V2000
  -30.0169    8.8899   -4.0243 N   0  0  0  0  0  0  0  0  0  0  0  0
  -31.2863    8.3821   -4.5371 C   0  0  0  0  0  0  0  0  0  0  0  0
  -31.1426    7.7842   -5.9170 C   0  0  0  0  0  0  0  0  0  0  0  0
  -31.3609    8.6109   -7.0370 C   0  0  0  0  0  0  0  0  0  0  0  0
  -31.2347    8.1129   -8.3332 C   0  0  0  0  0  0  0  0  0  0  0  0
  -30.8919    6.7818   -8.5149 C   0  0  0  0  0  0  0  0  0  0  0  0
  -30.7510    6.2473   -9.7642 O   0  0  0  0  0  0  0  0  0  0  0  0
  -30.6685    5.9474   -7.4245 C   0  0  0  0  0  0  0  0  0  0  0  0
  -30.7690    6.4371   -6.1109 C   0  0  0  0  0  0  0  0  0  0  0  0
  -30.4894    5.6178   -4.9996 N   0  0  0  0  0  0  0  0  0  0  0  0
  -31.4453    4.5083   -4.8285 C   0  0  0  0  0  0  0  0  0  0  0  0
  -30.7754    3.1474   -5.0000 C   0  0  0  0  0  0  0  0  0  0  0  0
  -29.6200    2.9642   -4.0156 C   0  0  0  0  0  0  0  0  0  0  0  0
  -28.8956    4.2723   -3.7127 C   0  0  0  0  0  0  0  0  0  0  0  0
  -29.0618    5.2972   -4.8404 C   0  0  0  0  0  0  0  0  0  0  0  0
  -28.3611    6.4770   -4.4422 O   0  0  0  0  0  0  0  0  0  0  0  0
  -27.1057    6.6558   -5.1018 C   0  0  0  0  0  0  0  0  0  0  0  0
  -27.2718    7.2703   -6.4989 C   0  0  0  0  0  0  0  0  0  0  0  0
  -26.0050    7.4559   -7.1865 N   0  0  0  0  0  0  0  0  0  0  0  0
  -25.1538    8.4622   -6.7402 C   0  0  0  0  0  0  0  0  0  0  0  0
  -25.6290    9.5241   -6.0385 N   0  0  0  0  0  0  0  0  0  0  0  0
  -24.7647   10.4849   -5.6427 C   0  0  0  0  0  0  0  0  0  0  0  0
  -23.4321   10.5465   -5.8433 N   0  0  0  0  0  0  0  0  0  0  0  0
  -23.0123    9.4773   -6.5289 C   0  0  0  0  0  0  0  0  0  0  0  0
  -21.7338    9.2005   -6.9171 N   0  0  0  0  0  0  0  0  0  0  0  0
  -21.7564    8.0115   -7.5919 C   0  0  0  0  0  0  0  0  0  0  0  0
  -22.9698    7.5037   -7.6561 N   0  0  0  0  0  0  0  0  0  0  0  0
  -23.7704    8.4220   -7.0019 C   0  0  0  0  0  0  0  0  0  0  0  0
  1  2  1  0
  2  3  1  0
  3  4  2  0
  4  5  1  0
  5  6  2  0
  6  7  1  0
  6  8  1  0
  8  9  2  0
  9 10  1  0
 10 11  1  0
 11 12  1  0
 12 13  1  0
 13 14  1  0
 14 15  1  0
 15 16  1  0
 16 17  1  0
 17 18  1  0
 18 19  1  0
 19 20  1  0
 20 21  2  0
 21 22  1  0
 22 23  2  0
 23 24  1  0
 24 25  1  0
 25 26  1  0
 26 27  2  0
 27 28  1  0
  9  3  1  0
 15 10  1  0
 28 20  1  0
 28 24  2  0
M  END
$$$$
