
     RDKit          3D

 24 26  0  0  0  0  0  0  0  0999 V2000
  -37.8127  -63.1758   10.9077 C   0  0  0  0  0  0  0  0  0  0  0  0
  -37.4654  -61.9059   10.2822 N   0  0  0  0  0  0  0  0  0  0  0  0
  -38.4739  -61.4734    9.3791 C   0  0  0  0  0  0  0  0  0  0  0  0
  -39.6086  -60.8469    9.9155 C   0  0  0  0  0  0  0  0  0  0  0  0
  -40.6730  -60.4641    9.1002 C   0  0  0  0  0  0  0  0  0  0  0  0
  -40.6207  -60.7192    7.7346 C   0  0  0  0  0  0  0  0  0  0  0  0
  -41.5887  -60.4008    6.8202 O   0  0  0  0  0  0  0  0  0  0  0  0
  -42.7735  -59.7956    7.3232 C   0  0  0  0  0  0  0  0  0  0  0  0
  -39.4968  -61.3594    7.1927 C   0  0  0  0  0  0  0  0  0  0  0  0
  -38.4038  -61.7570    7.9875 C   0  0  0  0  0  0  0  0  0  0  0  0
  -37.2707  -62.4334    7.4421 N   0  0  0  0  0  0  0  0  0  0  0  0
  -37.4884  -63.2692    6.2636 C   0  0  0  0  0  0  0  0  0  0  0  0
  -38.3878  -64.3042    6.6134 O   0  0  0  0  0  0  0  0  0  0  0  0
  -36.2082  -63.9358    5.8054 C   0  0  0  0  0  0  0  0  0  0  0  0
  -35.2098  -62.8731    5.4616 C   0  0  0  0  0  0  0  0  0  0  0  0
  -34.2604  -63.1107    4.7121 O   0  0  0  0  0  0  0  0  0  0  0  0
  -35.4086  -61.5045    6.0472 C   0  0  0  0  0  0  0  0  0  0  0  0
  -36.0515  -61.5699    7.4452 C   0  0  0  0  0  0  0  0  0  0  0  0
  -35.0947  -61.7669    8.5529 N   0  0  0  0  0  0  0  0  0  0  0  0
  -34.1750  -60.6566    8.7827 C   0  0  0  0  0  0  0  0  0  0  0  0
  -33.6717  -60.6934   10.2319 C   0  0  0  0  0  0  0  0  0  0  0  0
  -33.4960  -62.1128   10.7773 C   0  0  0  0  0  0  0  0  0  0  0  0
  -33.2807  -63.1076    9.6466 C   0  0  0  0  0  0  0  0  0  0  0  0
  -34.4316  -63.0698    8.6273 C   0  0  0  0  0  0  0  0  0  0  0  0
  1  2  1  0
  2  3  1  0
  3  4  2  0
  4  5  1  0
  5  6  2  0
  6  7  1  0
  7  8  1  0
  6  9  1  0
  9 10  2  0
 10 11  1  0
 11 12  1  0
 12 13  1  0
 12 14  1  0
 14 15  1  0
 15 16  2  0
 15 17  1  0
 17 18  1  0
 18 19  1  0
 19 20  1  0
 20 21  1  0
 21 22  1  0
 22 23  1  0
 23 24  1  0
 10  3  1  0
 18 11  1  0
 24 19  1  0
M  END
$$$$
