
     RDKit          3D

 30 33  0  0  0  0  0  0  0  0999 V2000
    0.0595   -0.1126   13.5315 N   0  0  0  0  0  0  0  0  0  0  0  0
    0.3567   -1.3422   14.2869 C   0  0  0  0  0  0  0  0  0  0  0  0
    1.0439   -2.3744   13.4023 C   0  0  0  0  0  0  0  0  0  0  0  0
    1.5173   -3.7968   14.3592 S   0  0  0  0  0  0  0  0  0  0  0  0
    2.7184   -3.4997   15.1204 O   0  0  0  0  0  0  0  0  0  0  0  0
    0.3157   -4.2391   15.0536 O   0  0  0  0  0  0  0  0  0  0  0  0
    1.9274   -5.0974   13.2142 C   0  0  0  0  0  0  0  0  0  0  0  0
    1.4115   -6.3671   13.5155 C   0  0  0  0  0  0  0  0  0  0  0  0
    1.5995   -7.3922   12.6120 C   0  0  0  0  0  0  0  0  0  0  0  0
    2.2472   -7.2312   11.4474 N   0  0  0  0  0  0  0  0  0  0  0  0
    2.7449   -5.9969   11.1936 C   0  0  0  0  0  0  0  0  0  0  0  0
    2.6430   -4.8755   12.0310 C   0  0  0  0  0  0  0  0  0  0  0  0
    3.2342   -3.6470   11.7071 N   0  0  0  0  0  0  0  0  0  0  0  0
    3.1132   -3.2149   10.3014 C   0  0  0  0  0  0  0  0  0  0  0  0
    3.4279   -1.7243   10.1935 C   0  0  0  0  0  0  0  0  0  0  0  0
    4.7983   -1.3987   10.7787 C   0  0  0  0  0  0  0  0  0  0  0  0
    4.9102   -1.9129   12.2124 C   0  0  0  0  0  0  0  0  0  0  0  0
    4.5802   -3.4174   12.3302 C   0  0  0  0  0  0  0  0  0  0  0  0
    5.7020   -4.3296   11.7359 C   0  0  0  0  0  0  0  0  0  0  0  0
    7.0704   -4.0281   12.1816 N   0  0  0  0  0  0  0  0  0  0  0  0
    7.3017   -4.4174   13.5798 C   0  0  0  0  0  0  0  0  0  0  0  0
    8.6722   -3.9888   13.9905 C   0  0  0  0  0  0  0  0  0  0  0  0
    9.6610   -4.7473   14.4135 N   0  0  0  0  0  0  0  0  0  0  0  0
   10.7095   -3.8886   14.6479 C   0  0  0  0  0  0  0  0  0  0  0  0
   12.0065   -4.1583   15.1116 C   0  0  0  0  0  0  0  0  0  0  0  0
   12.9025   -3.0914   15.2593 C   0  0  0  0  0  0  0  0  0  0  0  0
   12.5152   -1.7838   14.9543 C   0  0  0  0  0  0  0  0  0  0  0  0
   11.2257   -1.4963   14.4955 C   0  0  0  0  0  0  0  0  0  0  0  0
   10.3543   -2.5776   14.3560 C   0  0  0  0  0  0  0  0  0  0  0  0
    9.0543   -2.6692   13.9360 N   0  0  0  0  0  0  0  0  0  0  0  0
  1  2  1  0
  2  3  1  0
  3  4  1  0
  4  5  2  0
  4  6  2  0
  4  7  1  0
  7  8  2  0
  8  9  1  0
  9 10  2  0
 10 11  1  0
 11 12  2  0
 12 13  1  0
 13 14  1  0
 14 15  1  0
 15 16  1  0
 16 17  1  0
 17 18  1  0
 18 19  1  0
 19 20  1  0
 20 21  1  0
 21 22  1  0
 22 23  2  0
 23 24  1  0
 24 25  2  0
 25 26  1  0
 26 27  2  0
 27 28  1  0
 28 29  2  0
 29 30  1  0
 12  7  1  0
 18 13  1  0
 30 22  1  0
 29 24  1  0
M  END
$$$$
