
     RDKit          3D

 16 17  0  0  0  0  0  0  0  0999 V2000
  -18.2440   35.1992   13.5063 N   0  0  0  0  0  0  0  0  0  0  0  0
  -17.6824   34.1084   14.2915 C   0  0  0  0  0  0  0  0  0  0  0  0
  -18.7788   33.4207   15.1019 C   0  0  0  0  0  0  0  0  0  0  0  0
  -18.1963   32.3386   16.0020 C   0  0  0  0  0  0  0  0  0  0  0  0
  -19.2638   31.4500   16.6102 C   0  0  0  0  0  0  0  0  0  0  0  0
  -19.3125   30.2504   16.3231 O   0  0  0  0  0  0  0  0  0  0  0  0
  -20.2395   32.0743   17.5909 C   0  0  0  0  0  0  0  0  0  0  0  0
  -21.5453   32.4177   16.9529 C   0  0  0  0  0  0  0  0  0  0  0  0
  -22.4122   31.5318   16.3409 C   0  0  0  0  0  0  0  0  0  0  0  0
  -23.4971   32.2282   15.8862 N   0  0  0  0  0  0  0  0  0  0  0  0
  -23.3696   33.5609   16.1975 C   0  0  0  0  0  0  0  0  0  0  0  0
  -24.2318   34.6323   15.9347 C   0  0  0  0  0  0  0  0  0  0  0  0
  -23.8439   35.9003   16.3755 C   0  0  0  0  0  0  0  0  0  0  0  0
  -22.6422   36.0858   17.0532 C   0  0  0  0  0  0  0  0  0  0  0  0
  -21.7925   35.0030   17.3088 C   0  0  0  0  0  0  0  0  0  0  0  0
  -22.1571   33.7119   16.8722 C   0  0  0  0  0  0  0  0  0  0  0  0
  1  2  1  0
  2  3  1  0
  3  4  1  0
  4  5  1  0
  5  6  2  0
  5  7  1  0
  7  8  1  0
  8  9  2  0
  9 10  1  0
 10 11  1  0
 11 12  2  0
 12 13  1  0
 13 14  2  0
 14 15  1  0
 15 16  2  0
 16  8  1  0
 16 11  1  0
M  END
$$$$
