
     RDKit          3D

 19 20  0  0  0  0  0  0  0  0999 V2000
  -14.3062   10.5816  -28.2993 C   0  0  0  0  0  0  0  0  0  0  0  0
  -14.5630    9.6690  -29.3800 N   0  0  0  0  0  0  0  0  0  0  0  0
  -13.5209    9.0790  -30.0636 C   0  0  0  0  0  0  0  0  0  0  0  0
  -12.3424    9.3909  -29.9168 O   0  0  0  0  0  0  0  0  0  0  0  0
  -13.9721    8.0083  -31.0361 C   0  0  0  0  0  0  0  0  0  0  0  0
  -14.1291    6.6513  -30.3860 C   0  0  0  0  0  0  0  0  0  0  0  0
  -13.0835    5.7217  -30.5325 C   0  0  0  0  0  0  0  0  0  0  0  0
  -13.1684    4.4454  -29.9746 C   0  0  0  0  0  0  0  0  0  0  0  0
  -14.3052    4.0759  -29.2660 C   0  0  0  0  0  0  0  0  0  0  0  0
  -14.5324    2.8562  -28.6879 O   0  0  0  0  0  0  0  0  0  0  0  0
  -13.4949    1.8900  -28.8003 C   0  0  0  0  0  0  0  0  0  0  0  0
  -15.3427    5.0015  -29.1043 C   0  0  0  0  0  0  0  0  0  0  0  0
  -15.2698    6.3053  -29.6279 C   0  0  0  0  0  0  0  0  0  0  0  0
  -16.3169    7.2460  -29.4585 N   0  0  0  0  0  0  0  0  0  0  0  0
  -17.3561    7.0631  -30.4862 C   0  0  0  0  0  0  0  0  0  0  0  0
  -18.1898    8.3446  -30.5716 C   0  0  0  0  0  0  0  0  0  0  0  0
  -18.4051    9.0159  -29.2119 C   0  0  0  0  0  0  0  0  0  0  0  0
  -18.2323    8.0304  -28.0638 C   0  0  0  0  0  0  0  0  0  0  0  0
  -16.8577    7.3471  -28.0803 C   0  0  0  0  0  0  0  0  0  0  0  0
  1  2  1  0
  2  3  1  0
  3  4  2  0
  3  5  1  0
  5  6  1  0
  6  7  2  0
  7  8  1  0
  8  9  2  0
  9 10  1  0
 10 11  1  0
  9 12  1  0
 12 13  2  0
 13 14  1  0
 14 15  1  0
 15 16  1  0
 16 17  1  0
 17 18  1  0
 18 19  1  0
 13  6  1  0
 19 14  1  0
M  END
$$$$
