
     RDKit          3D

 16 17  0  0  0  0  0  0  0  0999 V2000
   19.6864   -6.2905  -21.4205 N   0  0  0  0  0  0  0  0  0  0  0  0
   18.7821   -6.4224  -20.2782 C   0  0  0  0  0  0  0  0  0  0  0  0
   17.3694   -6.7409  -20.7511 C   0  0  0  0  0  0  0  0  0  0  0  0
   16.4075   -6.8952  -19.5870 C   0  0  0  0  0  0  0  0  0  0  0  0
   16.7331   -6.6345  -18.4295 O   0  0  0  0  0  0  0  0  0  0  0  0
   15.0114   -7.3646  -19.9488 C   0  0  0  0  0  0  0  0  0  0  0  0
   14.1179   -7.5104  -18.7208 C   0  0  0  0  0  0  0  0  0  0  0  0
   12.7431   -7.9737  -19.0871 C   0  0  0  0  0  0  0  0  0  0  0  0
   12.2940   -9.2800  -19.0916 C   0  0  0  0  0  0  0  0  0  0  0  0
   10.9843   -9.2836  -19.4889 N   0  0  0  0  0  0  0  0  0  0  0  0
   10.5627   -8.0016  -19.7519 C   0  0  0  0  0  0  0  0  0  0  0  0
    9.3160   -7.5328  -20.1835 C   0  0  0  0  0  0  0  0  0  0  0  0
    9.1700   -6.1547  -20.3672 C   0  0  0  0  0  0  0  0  0  0  0  0
   10.2292   -5.2831  -20.1270 C   0  0  0  0  0  0  0  0  0  0  0  0
   11.4691   -5.7692  -19.6958 C   0  0  0  0  0  0  0  0  0  0  0  0
   11.6438   -7.1554  -19.5040 C   0  0  0  0  0  0  0  0  0  0  0  0
  1  2  1  0
  2  3  1  0
  3  4  1  0
  4  5  2  0
  4  6  1  0
  6  7  1  0
  7  8  1  0
  8  9  2  0
  9 10  1  0
 10 11  1  0
 11 12  2  0
 12 13  1  0
 13 14  2  0
 14 15  1  0
 15 16  2  0
 16  8  1  0
 16 11  1  0
M  END
$$$$
