
     RDKit          3D

 19 20  0  0  0  0  0  0  0  0999 V2000
   -6.2478  -26.5312   23.2069 N   0  0  0  0  0  0  0  0  0  0  0  0
   -5.7407  -27.0488   21.9414 C   0  0  0  0  0  0  0  0  0  0  0  0
   -5.7107  -25.9699   20.8692 C   0  0  0  0  0  0  0  0  0  0  0  0
   -7.1027  -25.5894   20.4090 C   0  0  0  0  0  0  0  0  0  0  0  0
   -7.8595  -26.4096   19.8853 O   0  0  0  0  0  0  0  0  0  0  0  0
   -7.5314  -24.1624   20.5988 C   0  0  0  0  0  0  0  0  0  0  0  0
   -7.9671  -23.8553   22.0046 C   0  0  0  0  0  0  0  0  0  0  0  0
   -7.1736  -23.3793   22.8196 O   0  0  0  0  0  0  0  0  0  0  0  0
   -9.3973  -24.1712   22.3813 C   0  0  0  0  0  0  0  0  0  0  0  0
   -9.4894  -25.4771   23.1564 C   0  0  0  0  0  0  0  0  0  0  0  0
  -10.9097  -25.8635   23.4211 C   0  0  0  0  0  0  0  0  0  0  0  0
  -11.6563  -25.5436   24.5378 C   0  0  0  0  0  0  0  0  0  0  0  0
  -12.9066  -26.0799   24.3862 N   0  0  0  0  0  0  0  0  0  0  0  0
  -12.9983  -26.7449   23.1860 C   0  0  0  0  0  0  0  0  0  0  0  0
  -14.0752  -27.4339   22.6151 C   0  0  0  0  0  0  0  0  0  0  0  0
  -13.8760  -28.0242   21.3634 C   0  0  0  0  0  0  0  0  0  0  0  0
  -12.6488  -27.9281   20.7118 C   0  0  0  0  0  0  0  0  0  0  0  0
  -11.5826  -27.2353   21.2968 C   0  0  0  0  0  0  0  0  0  0  0  0
  -11.7578  -26.6304   22.5586 C   0  0  0  0  0  0  0  0  0  0  0  0
  1  2  1  0
  2  3  1  0
  3  4  1  0
  4  5  2  0
  4  6  1  0
  6  7  1  0
  7  8  2  0
  7  9  1  0
  9 10  1  0
 10 11  1  0
 11 12  2  0
 12 13  1  0
 13 14  1  0
 14 15  2  0
 15 16  1  0
 16 17  2  0
 17 18  1  0
 18 19  2  0
 19 11  1  0
 19 14  1  0
M  END
$$$$
