
     RDKit          3D

 26 28  0  0  0  0  0  0  0  0999 V2000
   23.9622  -15.4537   -5.2277 C   0  0  0  0  0  0  0  0  0  0  0  0
   22.9373  -16.4198   -5.5993 N   0  0  0  0  0  0  0  0  0  0  0  0
   21.9298  -15.8110   -6.4764 C   0  0  0  0  0  0  0  0  0  0  0  0
   20.8248  -16.8065   -6.8645 C   0  0  0  0  0  0  0  0  0  0  0  0
   19.8307  -17.0803   -5.7586 C   0  0  0  0  0  0  0  0  0  0  0  0
   20.0472  -18.1169   -4.8461 C   0  0  0  0  0  0  0  0  0  0  0  0
   19.1214  -18.3819   -3.8356 C   0  0  0  0  0  0  0  0  0  0  0  0
   17.9650  -17.6081   -3.7183 C   0  0  0  0  0  0  0  0  0  0  0  0
   17.0071  -17.7875   -2.7514 O   0  0  0  0  0  0  0  0  0  0  0  0
   16.9929  -19.0575   -2.1036 C   0  0  0  0  0  0  0  0  0  0  0  0
   17.7465  -16.5341   -4.6022 C   0  0  0  0  0  0  0  0  0  0  0  0
   16.5032  -15.6642   -4.5117 C   0  0  0  0  0  0  0  0  0  0  0  0
   16.3273  -15.1568   -3.1829 O   0  0  0  0  0  0  0  0  0  0  0  0
   15.2513  -16.4191   -5.0243 C   0  0  0  0  0  0  0  0  0  0  0  0
   15.1788  -16.9126   -6.1510 O   0  0  0  0  0  0  0  0  0  0  0  0
   14.2354  -16.4601   -4.0927 N   0  0  0  0  0  0  0  0  0  0  0  0
   13.0411  -17.0870   -4.3115 C   0  0  0  0  0  0  0  0  0  0  0  0
   12.0707  -17.1746   -3.4327 N   0  0  0  0  0  0  0  0  0  0  0  0
   11.0680  -17.8685   -4.0696 C   0  0  0  0  0  0  0  0  0  0  0  0
    9.8018  -18.2515   -3.5998 C   0  0  0  0  0  0  0  0  0  0  0  0
    8.9510  -18.9587   -4.4608 C   0  0  0  0  0  0  0  0  0  0  0  0
    9.3516  -19.2782   -5.7606 C   0  0  0  0  0  0  0  0  0  0  0  0
   10.6140  -18.9132   -6.2444 C   0  0  0  0  0  0  0  0  0  0  0  0
   11.4410  -18.2109   -5.3659 C   0  0  0  0  0  0  0  0  0  0  0  0
   12.7079  -17.7082   -5.4878 N   0  0  0  0  0  0  0  0  0  0  0  0
   18.6824  -16.2892   -5.6235 C   0  0  0  0  0  0  0  0  0  0  0  0
  1  2  1  0
  2  3  1  0
  3  4  1  0
  4  5  1  0
  5  6  2  0
  6  7  1  0
  7  8  2  0
  8  9  1  0
  9 10  1  0
  8 11  1  0
 11 12  1  0
 12 13  1  0
 12 14  1  0
 14 15  2  0
 14 16  1  0
 16 17  1  0
 17 18  2  0
 18 19  1  0
 19 20  2  0
 20 21  1  0
 21 22  2  0
 22 23  1  0
 23 24  2  0
 24 25  1  0
 11 26  2  0
 26  5  1  0
 25 17  1  0
 24 19  1  0
M  END
$$$$
