
     RDKit          3D

 16 17  0  0  0  0  0  0  0  0999 V2000
   38.7499   -2.3808   -1.2750 C   0  0  0  0  0  0  0  0  0  0  0  0
   37.3422   -2.5783   -1.2557 O   0  0  0  0  0  0  0  0  0  0  0  0
   36.6119   -1.7338   -0.4659 C   0  0  0  0  0  0  0  0  0  0  0  0
   37.1150   -0.7086    0.3213 C   0  0  0  0  0  0  0  0  0  0  0  0
   36.2407    0.0805    1.0741 C   0  0  0  0  0  0  0  0  0  0  0  0
   34.8425   -0.1201    1.0528 C   0  0  0  0  0  0  0  0  0  0  0  0
   33.9694    0.7842    1.8941 C   0  0  0  0  0  0  0  0  0  0  0  0
   34.4634    2.1627    1.9828 N   0  0  0  0  0  0  0  0  0  0  0  0
   34.3317   -1.1907    0.2899 C   0  0  0  0  0  0  0  0  0  0  0  0
   32.9883   -1.5760    0.2060 N   0  0  0  0  0  0  0  0  0  0  0  0
   32.3179   -1.9564    1.4501 C   0  0  0  0  0  0  0  0  0  0  0  0
   31.0779   -2.7855    1.1118 C   0  0  0  0  0  0  0  0  0  0  0  0
   30.1661   -2.0399    0.1373 C   0  0  0  0  0  0  0  0  0  0  0  0
   30.9355   -1.6155   -1.1133 C   0  0  0  0  0  0  0  0  0  0  0  0
   32.1879   -0.8134   -0.7558 C   0  0  0  0  0  0  0  0  0  0  0  0
   35.2347   -1.9637   -0.4709 C   0  0  0  0  0  0  0  0  0  0  0  0
  1  2  1  0
  2  3  1  0
  3  4  2  0
  4  5  1  0
  5  6  2  0
  6  7  1  0
  7  8  1  0
  6  9  1  0
  9 10  1  0
 10 11  1  0
 11 12  1  0
 12 13  1  0
 13 14  1  0
 14 15  1  0
  9 16  2  0
 16  3  1  0
 15 10  1  0
M  END
$$$$
