
     RDKit          3D

 20 22  0  0  0  0  0  0  0  0999 V2000
  -26.9627   -2.0007  -31.6054 N   0  0  0  0  0  0  0  0  0  0  0  0
  -25.6029   -2.5409  -31.5762 C   0  0  0  0  0  0  0  0  0  0  0  0
  -24.9516   -2.3492  -30.2280 C   0  0  0  0  0  0  0  0  0  0  0  0
  -25.3122   -3.2123  -29.1783 C   0  0  0  0  0  0  0  0  0  0  0  0
  -24.7163   -3.0561  -27.9392 C   0  0  0  0  0  0  0  0  0  0  0  0
  -23.8017   -2.1092  -27.6677 N   0  0  0  0  0  0  0  0  0  0  0  0
  -23.4752   -1.2832  -28.6935 C   0  0  0  0  0  0  0  0  0  0  0  0
  -23.9889   -1.3465  -29.9945 C   0  0  0  0  0  0  0  0  0  0  0  0
  -23.6363   -0.4509  -31.0016 N   0  0  0  0  0  0  0  0  0  0  0  0
  -24.5899    0.6693  -31.1206 C   0  0  0  0  0  0  0  0  0  0  0  0
  -23.8878    2.0303  -31.1156 C   0  0  0  0  0  0  0  0  0  0  0  0
  -22.7090    2.0406  -30.1516 C   0  0  0  0  0  0  0  0  0  0  0  0
  -21.6639    0.9781  -30.5187 C   0  0  0  0  0  0  0  0  0  0  0  0
  -22.2375   -0.1767  -31.3849 C   0  0  0  0  0  0  0  0  0  0  0  0
  -21.2626   -1.2454  -31.6870 N   0  0  0  0  0  0  0  0  0  0  0  0
  -20.1101   -0.8077  -32.4837 C   0  0  0  0  0  0  0  0  0  0  0  0
  -18.7952   -0.7956  -31.7062 C   0  0  0  0  0  0  0  0  0  0  0  0
  -18.4609   -2.1744  -31.1433 C   0  0  0  0  0  0  0  0  0  0  0  0
  -19.7098   -3.0140  -30.8895 C   0  0  0  0  0  0  0  0  0  0  0  0
  -20.9260   -2.1386  -30.5798 C   0  0  0  0  0  0  0  0  0  0  0  0
  1  2  1  0
  2  3  1  0
  3  4  2  0
  4  5  1  0
  5  6  2  0
  6  7  1  0
  7  8  2  0
  8  9  1  0
  9 10  1  0
 10 11  1  0
 11 12  1  0
 12 13  1  0
 13 14  1  0
 14 15  1  0
 15 16  1  0
 16 17  1  0
 17 18  1  0
 18 19  1  0
 19 20  1  0
  8  3  1  0
 14  9  1  0
 20 15  1  0
M  END
$$$$
