
     RDKit          3D

 28 31  0  0  0  0  0  0  0  0999 V2000
   39.1038   24.7277  -28.0705 N   0  0  0  0  0  0  0  0  0  0  0  0
   40.3232   24.9828  -28.8362 C   0  0  0  0  0  0  0  0  0  0  0  0
   41.5373   24.3641  -28.1826 C   0  0  0  0  0  0  0  0  0  0  0  0
   41.7710   22.9851  -28.3635 C   0  0  0  0  0  0  0  0  0  0  0  0
   42.8742   22.3599  -27.7837 C   0  0  0  0  0  0  0  0  0  0  0  0
   43.7421   23.1110  -27.0058 C   0  0  0  0  0  0  0  0  0  0  0  0
   44.8518   22.5521  -26.4380 O   0  0  0  0  0  0  0  0  0  0  0  0
   43.5216   24.4681  -26.7967 C   0  0  0  0  0  0  0  0  0  0  0  0
   42.4338   25.1232  -27.3972 C   0  0  0  0  0  0  0  0  0  0  0  0
   42.1872   26.4986  -27.1868 N   0  0  0  0  0  0  0  0  0  0  0  0
   41.5532   26.6493  -25.8452 C   0  0  0  0  0  0  0  0  0  0  0  0
   41.3405   28.1147  -25.5138 C   0  0  0  0  0  0  0  0  0  0  0  0
   41.0882   28.5045  -24.3733 O   0  0  0  0  0  0  0  0  0  0  0  0
   41.3931   29.0666  -26.6761 C   0  0  0  0  0  0  0  0  0  0  0  0
   42.6785   28.8835  -27.4755 C   0  0  0  0  0  0  0  0  0  0  0  0
   43.2983   27.4589  -27.4271 C   0  0  0  0  0  0  0  0  0  0  0  0
   44.0685   27.2485  -28.7755 C   0  0  0  0  0  0  0  0  0  0  0  0
   45.1026   26.2024  -28.8115 N   0  0  0  0  0  0  0  0  0  0  0  0
   46.3090   26.5787  -28.0718 C   0  0  0  0  0  0  0  0  0  0  0  0
   47.3478   25.5132  -28.1993 C   0  0  0  0  0  0  0  0  0  0  0  0
   48.5473   25.6329  -28.7350 N   0  0  0  0  0  0  0  0  0  0  0  0
   49.1279   24.3934  -28.6155 C   0  0  0  0  0  0  0  0  0  0  0  0
   50.3989   23.9557  -29.0150 C   0  0  0  0  0  0  0  0  0  0  0  0
   50.7568   22.6224  -28.7754 C   0  0  0  0  0  0  0  0  0  0  0  0
   49.8674   21.7437  -28.1512 C   0  0  0  0  0  0  0  0  0  0  0  0
   48.5945   22.1627  -27.7465 C   0  0  0  0  0  0  0  0  0  0  0  0
   48.2651   23.4961  -27.9974 C   0  0  0  0  0  0  0  0  0  0  0  0
   47.1361   24.2320  -27.7473 N   0  0  0  0  0  0  0  0  0  0  0  0
  1  2  1  0
  2  3  1  0
  3  4  2  0
  4  5  1  0
  5  6  2  0
  6  7  1  0
  6  8  1  0
  8  9  2  0
  9 10  1  0
 10 11  1  0
 11 12  1  0
 12 13  2  0
 12 14  1  0
 14 15  1  0
 15 16  1  0
 16 17  1  0
 17 18  1  0
 18 19  1  0
 19 20  1  0
 20 21  2  0
 21 22  1  0
 22 23  2  0
 23 24  1  0
 24 25  2  0
 25 26  1  0
 26 27  2  0
 27 28  1  0
  9  3  1  0
 16 10  1  0
 28 20  1  0
 27 22  1  0
M  END
$$$$
