
     RDKit          3D

 28 31  0  0  0  0  0  0  0  0999 V2000
  -76.5334  -41.5242   60.2422 N   0  0  0  0  0  0  0  0  0  0  0  0
  -77.0452  -39.9433   59.8961 S   0  0  0  0  0  0  0  0  0  0  0  0
  -75.8324  -39.1582   60.0252 O   0  0  0  0  0  0  0  0  0  0  0  0
  -78.2119  -39.7378   60.7301 O   0  0  0  0  0  0  0  0  0  0  0  0
  -77.5953  -40.0492   58.2098 C   0  0  0  0  0  0  0  0  0  0  0  0
  -78.2813  -41.2223   57.8408 C   0  0  0  0  0  0  0  0  0  0  0  0
  -78.6823  -41.3653   56.5247 C   0  0  0  0  0  0  0  0  0  0  0  0
  -78.4630  -40.4305   55.5781 N   0  0  0  0  0  0  0  0  0  0  0  0
  -77.8176  -39.3013   55.9742 C   0  0  0  0  0  0  0  0  0  0  0  0
  -77.3424  -39.0337   57.2691 C   0  0  0  0  0  0  0  0  0  0  0  0
  -76.6939  -37.8369   57.5794 N   0  0  0  0  0  0  0  0  0  0  0  0
  -77.5371  -36.8336   58.2509 C   0  0  0  0  0  0  0  0  0  0  0  0
  -76.7015  -35.6154   58.6295 C   0  0  0  0  0  0  0  0  0  0  0  0
  -76.1016  -34.9461   57.3927 C   0  0  0  0  0  0  0  0  0  0  0  0
  -75.9104  -35.9215   56.2282 C   0  0  0  0  0  0  0  0  0  0  0  0
  -75.6247  -37.3535   56.6929 C   0  0  0  0  0  0  0  0  0  0  0  0
  -74.3912  -37.3579   57.4099 O   0  0  0  0  0  0  0  0  0  0  0  0
  -73.8065  -38.6496   57.4150 C   0  0  0  0  0  0  0  0  0  0  0  0
  -72.7529  -38.6680   58.4154 N   0  0  0  0  0  0  0  0  0  0  0  0
  -72.0626  -39.8200   58.5690 C   0  0  0  0  0  0  0  0  0  0  0  0
  -71.9365  -40.5431   59.6559 N   0  0  0  0  0  0  0  0  0  0  0  0
  -71.1376  -41.6052   59.3007 C   0  0  0  0  0  0  0  0  0  0  0  0
  -70.6981  -42.6972   60.0668 C   0  0  0  0  0  0  0  0  0  0  0  0
  -69.8729  -43.6568   59.4594 C   0  0  0  0  0  0  0  0  0  0  0  0
  -69.4962  -43.5328   58.1202 C   0  0  0  0  0  0  0  0  0  0  0  0
  -69.9306  -42.4511   57.3376 C   0  0  0  0  0  0  0  0  0  0  0  0
  -70.7487  -41.5110   57.9690 C   0  0  0  0  0  0  0  0  0  0  0  0
  -71.3312  -40.3458   57.5355 N   0  0  0  0  0  0  0  0  0  0  0  0
  1  2  1  0
  2  3  2  0
  2  4  2  0
  2  5  1  0
  5  6  2  0
  6  7  1  0
  7  8  2  0
  8  9  1  0
  9 10  2  0
 10 11  1  0
 11 12  1  0
 12 13  1  0
 13 14  1  0
 14 15  1  0
 15 16  1  0
 16 17  1  0
 17 18  1  0
 18 19  1  0
 19 20  1  0
 20 21  2  0
 21 22  1  0
 22 23  2  0
 23 24  1  0
 24 25  2  0
 25 26  1  0
 26 27  2  0
 27 28  1  0
 10  5  1  0
 16 11  1  0
 28 20  1  0
 27 22  1  0
M  END
$$$$
