
     RDKit          3D

 25 27  0  0  0  0  0  0  0  0999 V2000
   52.0725   24.4909  -50.6458 N   0  0  0  0  0  0  0  0  0  0  0  0
   52.1053   25.1145  -51.9608 C   0  0  0  0  0  0  0  0  0  0  0  0
   50.7943   25.8210  -52.3150 C   0  0  0  0  0  0  0  0  0  0  0  0
   49.5767   24.8952  -52.3548 C   0  0  0  0  0  0  0  0  0  0  0  0
   49.0590   24.5525  -50.9692 C   0  0  0  0  0  0  0  0  0  0  0  0
   49.0050   25.3813  -50.0600 O   0  0  0  0  0  0  0  0  0  0  0  0
   48.6750   23.1449  -50.6961 C   0  0  0  0  0  0  0  0  0  0  0  0
   49.2170   22.5902  -49.5300 C   0  0  0  0  0  0  0  0  0  0  0  0
   48.9744   21.2606  -49.2621 C   0  0  0  0  0  0  0  0  0  0  0  0
   48.2400   20.4680  -50.0638 N   0  0  0  0  0  0  0  0  0  0  0  0
   47.7124   21.0440  -51.1734 C   0  0  0  0  0  0  0  0  0  0  0  0
   47.8663   22.3820  -51.5596 C   0  0  0  0  0  0  0  0  0  0  0  0
   47.2244   22.9300  -52.6796 N   0  0  0  0  0  0  0  0  0  0  0  0
   47.1107   22.0493  -53.8632 C   0  0  0  0  0  0  0  0  0  0  0  0
   46.5522   22.8355  -55.0397 C   0  0  0  0  0  0  0  0  0  0  0  0
   46.1590   22.2825  -56.0666 O   0  0  0  0  0  0  0  0  0  0  0  0
   46.5698   24.3375  -54.9079 C   0  0  0  0  0  0  0  0  0  0  0  0
   45.9852   24.8070  -53.5722 C   0  0  0  0  0  0  0  0  0  0  0  0
   45.9892   23.7327  -52.4357 C   0  0  0  0  0  0  0  0  0  0  0  0
   45.6776   24.2840  -51.1048 N   0  0  0  0  0  0  0  0  0  0  0  0
   45.1684   23.2743  -50.1603 C   0  0  0  0  0  0  0  0  0  0  0  0
   43.7651   23.5641  -49.6287 C   0  0  0  0  0  0  0  0  0  0  0  0
   43.6915   24.9263  -48.9492 C   0  0  0  0  0  0  0  0  0  0  0  0
   44.6109   25.9469  -49.6097 C   0  0  0  0  0  0  0  0  0  0  0  0
   44.9600   25.5574  -51.0467 C   0  0  0  0  0  0  0  0  0  0  0  0
  1  2  1  0
  2  3  1  0
  3  4  1  0
  4  5  1  0
  5  6  2  0
  5  7  1  0
  7  8  2  0
  8  9  1  0
  9 10  2  0
 10 11  1  0
 11 12  2  0
 12 13  1  0
 13 14  1  0
 14 15  1  0
 15 16  2  0
 15 17  1  0
 17 18  1  0
 18 19  1  0
 19 20  1  0
 20 21  1  0
 21 22  1  0
 22 23  1  0
 23 24  1  0
 24 25  1  0
 12  7  1  0
 19 13  1  0
 25 20  1  0
M  END
$$$$
