
     RDKit          3D

 19 20  0  0  0  0  0  0  0  0999 V2000
   -1.6503    8.3659   -2.0724 N   0  0  0  0  0  0  0  0  0  0  0  0
   -1.1432    7.8482   -3.3379 C   0  0  0  0  0  0  0  0  0  0  0  0
   -1.1132    8.9272   -4.4101 C   0  0  0  0  0  0  0  0  0  0  0  0
   -2.5052    9.3076   -4.8703 C   0  0  0  0  0  0  0  0  0  0  0  0
   -3.2620    8.4874   -5.3940 O   0  0  0  0  0  0  0  0  0  0  0  0
   -2.9339   10.7346   -4.6805 C   0  0  0  0  0  0  0  0  0  0  0  0
   -3.3696   11.0417   -3.2747 C   0  0  0  0  0  0  0  0  0  0  0  0
   -2.5761   11.5178   -2.4597 O   0  0  0  0  0  0  0  0  0  0  0  0
   -4.7998   10.7258   -2.8980 C   0  0  0  0  0  0  0  0  0  0  0  0
   -4.8919    9.4200   -2.1229 C   0  0  0  0  0  0  0  0  0  0  0  0
   -6.3121    9.0335   -1.8582 C   0  0  0  0  0  0  0  0  0  0  0  0
   -7.0588    9.3534   -0.7415 C   0  0  0  0  0  0  0  0  0  0  0  0
   -8.3091    8.8172   -0.8931 N   0  0  0  0  0  0  0  0  0  0  0  0
   -8.4008    8.1521   -2.0933 C   0  0  0  0  0  0  0  0  0  0  0  0
   -9.4777    7.4631   -2.6642 C   0  0  0  0  0  0  0  0  0  0  0  0
   -9.2785    6.8728   -3.9159 C   0  0  0  0  0  0  0  0  0  0  0  0
   -8.0513    6.9689   -4.5675 C   0  0  0  0  0  0  0  0  0  0  0  0
   -6.9851    7.6617   -3.9825 C   0  0  0  0  0  0  0  0  0  0  0  0
   -7.1603    8.2667   -2.7207 C   0  0  0  0  0  0  0  0  0  0  0  0
  1  2  1  0
  2  3  1  0
  3  4  1  0
  4  5  2  0
  4  6  1  0
  6  7  1  0
  7  8  2  0
  7  9  1  0
  9 10  1  0
 10 11  1  0
 11 12  2  0
 12 13  1  0
 13 14  1  0
 14 15  2  0
 15 16  1  0
 16 17  2  0
 17 18  1  0
 18 19  2  0
 19 11  1  0
 19 14  1  0
M  END
$$$$
