
     RDKit          3D

 32 35  0  0  0  0  0  0  0  0999 V2000
   23.6651  -12.0379   -7.0840 N   0  0  0  0  0  0  0  0  0  0  0  0
   24.6119  -12.2311   -5.9843 C   0  0  0  0  0  0  0  0  0  0  0  0
   25.3786  -10.9706   -5.6533 C   0  0  0  0  0  0  0  0  0  0  0  0
   26.6045  -10.7418   -6.3013 C   0  0  0  0  0  0  0  0  0  0  0  0
   27.3432   -9.6190   -5.9730 C   0  0  0  0  0  0  0  0  0  0  0  0
   26.9571   -8.7145   -5.0533 N   0  0  0  0  0  0  0  0  0  0  0  0
   25.7653   -8.9488   -4.4447 C   0  0  0  0  0  0  0  0  0  0  0  0
   24.9158  -10.0318   -4.7060 C   0  0  0  0  0  0  0  0  0  0  0  0
   23.6674  -10.2132   -4.0807 N   0  0  0  0  0  0  0  0  0  0  0  0
   23.6976  -10.2851   -2.6110 C   0  0  0  0  0  0  0  0  0  0  0  0
   23.3955   -8.9532   -1.9496 C   0  0  0  0  0  0  0  0  0  0  0  0
   23.9499   -8.6005   -0.9079 O   0  0  0  0  0  0  0  0  0  0  0  0
   22.2688   -8.1501   -2.5465 C   0  0  0  0  0  0  0  0  0  0  0  0
   22.4053   -8.0798   -4.0611 C   0  0  0  0  0  0  0  0  0  0  0  0
   22.5275   -9.4871   -4.6904 C   0  0  0  0  0  0  0  0  0  0  0  0
   22.4948   -9.3421   -6.1442 N   0  0  0  0  0  0  0  0  0  0  0  0
   21.1751   -9.2537   -6.7205 C   0  0  0  0  0  0  0  0  0  0  0  0
   20.6844  -10.5859   -6.8257 N   0  0  0  0  0  0  0  0  0  0  0  0
   19.5297  -10.8702   -7.5144 C   0  0  0  0  0  0  0  0  0  0  0  0
   18.8990  -10.0694   -8.1914 O   0  0  0  0  0  0  0  0  0  0  0  0
   19.1173  -12.2865   -7.4294 C   0  0  0  0  0  0  0  0  0  0  0  0
   19.6354  -13.1505   -8.4081 C   0  0  0  0  0  0  0  0  0  0  0  0
   19.3417  -14.5093   -8.3549 C   0  0  0  0  0  0  0  0  0  0  0  0
   18.5215  -14.9945   -7.3362 C   0  0  0  0  0  0  0  0  0  0  0  0
   18.0148  -14.1286   -6.3561 C   0  0  0  0  0  0  0  0  0  0  0  0
   18.3067  -12.7528   -6.3694 C   0  0  0  0  0  0  0  0  0  0  0  0
   17.8013  -11.8686   -5.3914 N   0  0  0  0  0  0  0  0  0  0  0  0
   17.5880  -12.4067   -4.0365 C   0  0  0  0  0  0  0  0  0  0  0  0
   17.3547  -11.2401   -3.0747 C   0  0  0  0  0  0  0  0  0  0  0  0
   16.1628  -10.3916   -3.5295 C   0  0  0  0  0  0  0  0  0  0  0  0
   16.3532   -9.9300   -4.9765 C   0  0  0  0  0  0  0  0  0  0  0  0
   16.6279  -11.1154   -5.9045 C   0  0  0  0  0  0  0  0  0  0  0  0
  1  2  1  0
  2  3  1  0
  3  4  2  0
  4  5  1  0
  5  6  2  0
  6  7  1  0
  7  8  2  0
  8  9  1  0
  9 10  1  0
 10 11  1  0
 11 12  2  0
 11 13  1  0
 13 14  1  0
 14 15  1  0
 15 16  1  0
 16 17  1  0
 17 18  1  0
 18 19  1  0
 19 20  2  0
 19 21  1  0
 21 22  2  0
 22 23  1  0
 23 24  2  0
 24 25  1  0
 25 26  2  0
 26 27  1  0
 27 28  1  0
 28 29  1  0
 29 30  1  0
 30 31  1  0
 31 32  1  0
  8  3  1  0
 15  9  1  0
 26 21  1  0
 32 27  1  0
M  END
$$$$
