
     RDKit          3D

 16 17  0  0  0  0  0  0  0  0999 V2000
  -89.2575    5.0097   32.4978 C   0  0  0  0  0  0  0  0  0  0  0  0
  -89.8046    3.7133   32.6916 O   0  0  0  0  0  0  0  0  0  0  0  0
  -88.9294    2.6651   32.8385 C   0  0  0  0  0  0  0  0  0  0  0  0
  -87.5360    2.8038   32.7940 C   0  0  0  0  0  0  0  0  0  0  0  0
  -86.7012    1.6933   32.9505 C   0  0  0  0  0  0  0  0  0  0  0  0
  -87.2379    0.4194   33.1549 C   0  0  0  0  0  0  0  0  0  0  0  0
  -86.3395   -0.7772   33.3207 C   0  0  0  0  0  0  0  0  0  0  0  0
  -85.5298   -0.6717   34.5295 N   0  0  0  0  0  0  0  0  0  0  0  0
  -88.6306    0.2810   33.2013 C   0  0  0  0  0  0  0  0  0  0  0  0
  -89.4919    1.3833   33.0457 C   0  0  0  0  0  0  0  0  0  0  0  0
  -90.8787    1.0961   33.1140 N   0  0  0  0  0  0  0  0  0  0  0  0
  -91.5284    1.7273   34.2732 C   0  0  0  0  0  0  0  0  0  0  0  0
  -92.9412    1.1567   34.4160 C   0  0  0  0  0  0  0  0  0  0  0  0
  -93.7429    1.3397   33.1272 C   0  0  0  0  0  0  0  0  0  0  0  0
  -92.9852    0.7741   31.9259 C   0  0  0  0  0  0  0  0  0  0  0  0
  -91.5714    1.3538   31.8419 C   0  0  0  0  0  0  0  0  0  0  0  0
  1  2  1  0
  2  3  1  0
  3  4  2  0
  4  5  1  0
  5  6  2  0
  6  7  1  0
  7  8  1  0
  6  9  1  0
  9 10  2  0
 10 11  1  0
 11 12  1  0
 12 13  1  0
 13 14  1  0
 14 15  1  0
 15 16  1  0
 10  3  1  0
 16 11  1  0
M  END
$$$$
