
     RDKit          3D

 18 19  0  0  0  0  0  0  0  0999 V2000
   -6.8490   -9.2673   34.0605 N   0  0  0  0  0  0  0  0  0  0  0  0
   -7.6697  -10.3095   33.4543 C   0  0  0  0  0  0  0  0  0  0  0  0
   -7.5670  -11.6010   34.2672 C   0  0  0  0  0  0  0  0  0  0  0  0
   -8.3139  -12.7643   33.6156 C   0  0  0  0  0  0  0  0  0  0  0  0
   -9.8288  -12.6517   33.6873 C   0  0  0  0  0  0  0  0  0  0  0  0
  -10.3975  -11.7425   34.2902 O   0  0  0  0  0  0  0  0  0  0  0  0
  -10.6039  -13.7500   32.9719 C   0  0  0  0  0  0  0  0  0  0  0  0
  -12.1174  -13.5831   33.0900 C   0  0  0  0  0  0  0  0  0  0  0  0
  -12.6459  -12.4427   32.2150 C   0  0  0  0  0  0  0  0  0  0  0  0
  -14.0742  -12.1541   32.5182 C   0  0  0  0  0  0  0  0  0  0  0  0
  -15.1290  -12.6312   31.8912 N   0  0  0  0  0  0  0  0  0  0  0  0
  -16.2148  -12.0854   32.5326 C   0  0  0  0  0  0  0  0  0  0  0  0
  -17.5840  -12.2525   32.2801 C   0  0  0  0  0  0  0  0  0  0  0  0
  -18.5046  -11.5764   33.0913 C   0  0  0  0  0  0  0  0  0  0  0  0
  -18.0704  -10.7514   34.1323 C   0  0  0  0  0  0  0  0  0  0  0  0
  -16.7077  -10.5723   34.3995 C   0  0  0  0  0  0  0  0  0  0  0  0
  -15.8131  -11.2576   33.5750 C   0  0  0  0  0  0  0  0  0  0  0  0
  -14.4442  -11.3182   33.5443 N   0  0  0  0  0  0  0  0  0  0  0  0
  1  2  1  0
  2  3  1  0
  3  4  1  0
  4  5  1  0
  5  6  2  0
  5  7  1  0
  7  8  1  0
  8  9  1  0
  9 10  1  0
 10 11  2  0
 11 12  1  0
 12 13  2  0
 13 14  1  0
 14 15  2  0
 15 16  1  0
 16 17  2  0
 17 18  1  0
 18 10  1  0
 17 12  1  0
M  END
$$$$
