
     RDKit          3D

 19 20  0  0  0  0  0  0  0  0999 V2000
   60.0620   16.5961    6.0701 C   0  0  0  0  0  0  0  0  0  0  0  0
   58.6976   16.5845    5.5611 N   0  0  0  0  0  0  0  0  0  0  0  0
   57.7189   16.1758    6.5816 C   0  0  0  0  0  0  0  0  0  0  0  0
   57.4075   17.2455    7.6422 C   0  0  0  0  0  0  0  0  0  0  0  0
   56.5696   18.3901    7.1056 C   0  0  0  0  0  0  0  0  0  0  0  0
   57.2328   19.5359    6.6322 C   0  0  0  0  0  0  0  0  0  0  0  0
   56.5273   20.5940    6.0567 C   0  0  0  0  0  0  0  0  0  0  0  0
   55.1451   20.5169    5.9334 C   0  0  0  0  0  0  0  0  0  0  0  0
   54.3303   21.4733    5.3909 O   0  0  0  0  0  0  0  0  0  0  0  0
   54.9651   22.6298    4.8602 C   0  0  0  0  0  0  0  0  0  0  0  0
   54.4799   19.3764    6.3960 C   0  0  0  0  0  0  0  0  0  0  0  0
   55.1654   18.3028    6.9940 C   0  0  0  0  0  0  0  0  0  0  0  0
   54.4879   17.1714    7.4799 N   0  0  0  0  0  0  0  0  0  0  0  0
   53.4198   16.6327    6.6266 C   0  0  0  0  0  0  0  0  0  0  0  0
   53.0958   15.2060    7.0716 C   0  0  0  0  0  0  0  0  0  0  0  0
   52.7333   15.1575    8.5544 C   0  0  0  0  0  0  0  0  0  0  0  0
   53.8231   15.8168    9.4031 C   0  0  0  0  0  0  0  0  0  0  0  0
   54.1580   17.2255    8.9050 C   0  0  0  0  0  0  0  0  0  0  0  0
   53.0410   18.0702    9.1171 O   0  0  0  0  0  0  0  0  0  0  0  0
  1  2  1  0
  2  3  1  0
  3  4  1  0
  4  5  1  0
  5  6  2  0
  6  7  1  0
  7  8  2  0
  8  9  1  0
  9 10  1  0
  8 11  1  0
 11 12  2  0
 12 13  1  0
 13 14  1  0
 14 15  1  0
 15 16  1  0
 16 17  1  0
 17 18  1  0
 18 19  1  0
 12  5  1  0
 18 13  1  0
M  END
$$$$
