
     RDKit          3D

 16 17  0  0  0  0  0  0  0  0999 V2000
  -21.6651  -59.9395    4.2720 N   0  0  0  0  0  0  0  0  0  0  0  0
  -20.3095  -60.1696    3.7844 C   0  0  0  0  0  0  0  0  0  0  0  0
  -19.8578  -61.6247    3.9172 C   0  0  0  0  0  0  0  0  0  0  0  0
  -19.7153  -62.0793    5.3721 C   0  0  0  0  0  0  0  0  0  0  0  0
  -19.1308  -63.4707    5.4711 C   0  0  0  0  0  0  0  0  0  0  0  0
  -19.9950  -64.5755    5.4794 C   0  0  0  0  0  0  0  0  0  0  0  0
  -19.4589  -65.8504    5.5671 C   0  0  0  0  0  0  0  0  0  0  0  0
  -18.1388  -66.1042    5.6460 N   0  0  0  0  0  0  0  0  0  0  0  0
  -17.3223  -65.0236    5.6284 C   0  0  0  0  0  0  0  0  0  0  0  0
  -17.7434  -63.6904    5.5320 C   0  0  0  0  0  0  0  0  0  0  0  0
  -16.8544  -62.5986    5.5232 N   0  0  0  0  0  0  0  0  0  0  0  0
  -16.2172  -62.3813    6.8262 C   0  0  0  0  0  0  0  0  0  0  0  0
  -15.6429  -60.9623    6.8630 C   0  0  0  0  0  0  0  0  0  0  0  0
  -15.0534  -60.5155    5.5215 C   0  0  0  0  0  0  0  0  0  0  0  0
  -14.7096  -61.7051    4.6341 C   0  0  0  0  0  0  0  0  0  0  0  0
  -15.9325  -62.5923    4.3715 C   0  0  0  0  0  0  0  0  0  0  0  0
  1  2  1  0
  2  3  1  0
  3  4  1  0
  4  5  1  0
  5  6  2  0
  6  7  1  0
  7  8  2  0
  8  9  1  0
  9 10  2  0
 10 11  1  0
 11 12  1  0
 12 13  1  0
 13 14  1  0
 14 15  1  0
 15 16  1  0
 10  5  1  0
 16 11  1  0
M  END
$$$$
