
     RDKit          3D

 24 26  0  0  0  0  0  0  0  0999 V2000
   -5.3078   -3.5285  -16.0244 C   0  0  0  0  0  0  0  0  0  0  0  0
   -4.8168   -2.2020  -15.8625 O   0  0  0  0  0  0  0  0  0  0  0  0
   -5.7097   -1.1768  -16.0463 C   0  0  0  0  0  0  0  0  0  0  0  0
   -7.0092   -1.3320  -16.5354 C   0  0  0  0  0  0  0  0  0  0  0  0
   -7.8361   -0.2192  -16.7182 C   0  0  0  0  0  0  0  0  0  0  0  0
   -7.3744    1.0690  -16.4287 C   0  0  0  0  0  0  0  0  0  0  0  0
   -8.2726    2.2653  -16.6108 C   0  0  0  0  0  0  0  0  0  0  0  0
   -9.0322    2.5444  -15.3985 N   0  0  0  0  0  0  0  0  0  0  0  0
   -6.0745    1.2230  -15.9306 C   0  0  0  0  0  0  0  0  0  0  0  0
   -5.2377    0.1107  -15.7304 C   0  0  0  0  0  0  0  0  0  0  0  0
   -3.8358    0.3325  -15.2067 C   0  0  0  0  0  0  0  0  0  0  0  0
   -2.8091    0.5034  -16.3103 C   0  0  0  0  0  0  0  0  0  0  0  0
   -2.1862    1.5512  -16.4798 O   0  0  0  0  0  0  0  0  0  0  0  0
   -2.5881   -0.6202  -17.0690 N   0  0  0  0  0  0  0  0  0  0  0  0
   -1.6233   -0.6576  -18.1423 C   0  0  0  0  0  0  0  0  0  0  0  0
   -0.2595   -0.8474  -17.5786 C   0  0  0  0  0  0  0  0  0  0  0  0
    0.4955   -1.9268  -17.6403 N   0  0  0  0  0  0  0  0  0  0  0  0
    1.6537   -1.6010  -16.9750 C   0  0  0  0  0  0  0  0  0  0  0  0
    2.7989   -2.3746  -16.7366 C   0  0  0  0  0  0  0  0  0  0  0  0
    3.8577   -1.8046  -16.0176 C   0  0  0  0  0  0  0  0  0  0  0  0
    3.7771   -0.4920  -15.5450 C   0  0  0  0  0  0  0  0  0  0  0  0
    2.6424    0.2955  -15.7731 C   0  0  0  0  0  0  0  0  0  0  0  0
    1.6042   -0.2971  -16.4945 C   0  0  0  0  0  0  0  0  0  0  0  0
    0.3773    0.1614  -16.8933 N   0  0  0  0  0  0  0  0  0  0  0  0
  1  2  1  0
  2  3  1  0
  3  4  2  0
  4  5  1  0
  5  6  2  0
  6  7  1  0
  7  8  1  0
  6  9  1  0
  9 10  2  0
 10 11  1  0
 11 12  1  0
 12 13  2  0
 12 14  1  0
 14 15  1  0
 15 16  1  0
 16 17  2  0
 17 18  1  0
 18 19  2  0
 19 20  1  0
 20 21  2  0
 21 22  1  0
 22 23  2  0
 23 24  1  0
 10  3  1  0
 24 16  1  0
 23 18  1  0
M  END
$$$$
