
     RDKit          3D

 19 20  0  0  0  0  0  0  0  0999 V2000
   12.7032  -17.3467    3.4126 N   0  0  0  0  0  0  0  0  0  0  0  0
   13.2102  -17.8644    2.1471 C   0  0  0  0  0  0  0  0  0  0  0  0
   13.2403  -16.7854    1.0750 C   0  0  0  0  0  0  0  0  0  0  0  0
   11.8482  -16.4050    0.6147 C   0  0  0  0  0  0  0  0  0  0  0  0
   11.0914  -17.2252    0.0910 O   0  0  0  0  0  0  0  0  0  0  0  0
   11.4195  -14.9780    0.8046 C   0  0  0  0  0  0  0  0  0  0  0  0
   10.9838  -14.6709    2.2103 C   0  0  0  0  0  0  0  0  0  0  0  0
   11.7773  -14.1948    3.0253 O   0  0  0  0  0  0  0  0  0  0  0  0
    9.5536  -14.9868    2.5870 C   0  0  0  0  0  0  0  0  0  0  0  0
    9.4616  -16.2926    3.3621 C   0  0  0  0  0  0  0  0  0  0  0  0
    8.0413  -16.6791    3.6268 C   0  0  0  0  0  0  0  0  0  0  0  0
    7.2947  -16.3592    4.7435 C   0  0  0  0  0  0  0  0  0  0  0  0
    6.0444  -16.8954    4.5919 N   0  0  0  0  0  0  0  0  0  0  0  0
    5.9526  -17.5605    3.3917 C   0  0  0  0  0  0  0  0  0  0  0  0
    4.8757  -18.2495    2.8208 C   0  0  0  0  0  0  0  0  0  0  0  0
    5.0749  -18.8398    1.5691 C   0  0  0  0  0  0  0  0  0  0  0  0
    6.3021  -18.7437    0.9175 C   0  0  0  0  0  0  0  0  0  0  0  0
    7.3683  -18.0509    1.5025 C   0  0  0  0  0  0  0  0  0  0  0  0
    7.1932  -17.4459    2.7643 C   0  0  0  0  0  0  0  0  0  0  0  0
  1  2  1  0
  2  3  1  0
  3  4  1  0
  4  5  2  0
  4  6  1  0
  6  7  1  0
  7  8  2  0
  7  9  1  0
  9 10  1  0
 10 11  1  0
 11 12  2  0
 12 13  1  0
 13 14  1  0
 14 15  2  0
 15 16  1  0
 16 17  2  0
 17 18  1  0
 18 19  2  0
 19 11  1  0
 19 14  1  0
M  END
$$$$
