
     RDKit          3D

 18 19  0  0  0  0  0  0  0  0999 V2000
   60.3066   -5.8390    2.2771 N   0  0  0  0  0  0  0  0  0  0  0  0
   59.4860   -6.8813    1.6709 C   0  0  0  0  0  0  0  0  0  0  0  0
   59.5887   -8.1728    2.4838 C   0  0  0  0  0  0  0  0  0  0  0  0
   58.8418   -9.3360    1.8322 C   0  0  0  0  0  0  0  0  0  0  0  0
   57.3269   -9.2235    1.9039 C   0  0  0  0  0  0  0  0  0  0  0  0
   56.7582   -8.3143    2.5068 O   0  0  0  0  0  0  0  0  0  0  0  0
   56.5518  -10.3218    1.1885 C   0  0  0  0  0  0  0  0  0  0  0  0
   55.0383  -10.1548    1.3067 C   0  0  0  0  0  0  0  0  0  0  0  0
   54.5098   -9.0144    0.4316 C   0  0  0  0  0  0  0  0  0  0  0  0
   53.0814   -8.7258    0.7348 C   0  0  0  0  0  0  0  0  0  0  0  0
   52.0267   -9.2029    0.1078 N   0  0  0  0  0  0  0  0  0  0  0  0
   50.9409   -8.6571    0.7492 C   0  0  0  0  0  0  0  0  0  0  0  0
   49.5717   -8.8242    0.4967 C   0  0  0  0  0  0  0  0  0  0  0  0
   48.6511   -8.1481    1.3079 C   0  0  0  0  0  0  0  0  0  0  0  0
   49.0853   -7.3232    2.3489 C   0  0  0  0  0  0  0  0  0  0  0  0
   50.4479   -7.1441    2.6161 C   0  0  0  0  0  0  0  0  0  0  0  0
   51.3426   -7.8293    1.7916 C   0  0  0  0  0  0  0  0  0  0  0  0
   52.7114   -7.8899    1.7609 N   0  0  0  0  0  0  0  0  0  0  0  0
  1  2  1  0
  2  3  1  0
  3  4  1  0
  4  5  1  0
  5  6  2  0
  5  7  1  0
  7  8  1  0
  8  9  1  0
  9 10  1  0
 10 11  2  0
 11 12  1  0
 12 13  2  0
 13 14  1  0
 14 15  2  0
 15 16  1  0
 16 17  2  0
 17 18  1  0
 18 10  1  0
 17 12  1  0
M  END
$$$$
