
     RDKit          3D

 27 30  0  0  0  0  0  0  0  0999 V2000
   42.4722    9.6037  -37.6933 N   0  0  0  0  0  0  0  0  0  0  0  0
   43.4734    8.2462  -37.6312 S   0  0  0  0  0  0  0  0  0  0  0  0
   44.2381    8.2963  -38.8555 O   0  0  0  0  0  0  0  0  0  0  0  0
   42.5650    7.1681  -37.3148 O   0  0  0  0  0  0  0  0  0  0  0  0
   44.5552    8.5350  -36.2668 C   0  0  0  0  0  0  0  0  0  0  0  0
   44.6242    9.8430  -35.7595 C   0  0  0  0  0  0  0  0  0  0  0  0
   45.3285   10.0683  -34.5941 C   0  0  0  0  0  0  0  0  0  0  0  0
   45.9413    9.0930  -33.9058 N   0  0  0  0  0  0  0  0  0  0  0  0
   45.8690    7.8484  -34.4353 C   0  0  0  0  0  0  0  0  0  0  0  0
   45.2265    7.4834  -35.6299 C   0  0  0  0  0  0  0  0  0  0  0  0
   45.3411    6.1664  -36.0547 N   0  0  0  0  0  0  0  0  0  0  0  0
   44.6857    5.1556  -35.2088 C   0  0  0  0  0  0  0  0  0  0  0  0
   43.9525    4.1241  -36.0586 C   0  0  0  0  0  0  0  0  0  0  0  0
   44.8818    3.4149  -37.0395 C   0  0  0  0  0  0  0  0  0  0  0  0
   46.0892    4.2638  -37.4343 C   0  0  0  0  0  0  0  0  0  0  0  0
   45.7640    5.7713  -37.4304 C   0  0  0  0  0  0  0  0  0  0  0  0
   47.0031    6.5675  -37.9340 C   0  0  0  0  0  0  0  0  0  0  0  0
   48.1061    6.4933  -36.9702 N   0  0  0  0  0  0  0  0  0  0  0  0
   49.2319    7.1687  -37.2710 C   0  0  0  0  0  0  0  0  0  0  0  0
   49.6328    7.6278  -38.4323 N   0  0  0  0  0  0  0  0  0  0  0  0
   50.8354    8.2450  -38.1889 C   0  0  0  0  0  0  0  0  0  0  0  0
   51.6991    8.9096  -39.0714 C   0  0  0  0  0  0  0  0  0  0  0  0
   52.8812    9.4646  -38.5644 C   0  0  0  0  0  0  0  0  0  0  0  0
   53.1963    9.3604  -37.2069 C   0  0  0  0  0  0  0  0  0  0  0  0
   52.3476    8.6993  -36.3106 C   0  0  0  0  0  0  0  0  0  0  0  0
   51.1774    8.1563  -36.8443 C   0  0  0  0  0  0  0  0  0  0  0  0
   50.1384    7.4584  -36.2859 N   0  0  0  0  0  0  0  0  0  0  0  0
  1  2  1  0
  2  3  2  0
  2  4  2  0
  2  5  1  0
  5  6  2  0
  6  7  1  0
  7  8  2  0
  8  9  1  0
  9 10  2  0
 10 11  1  0
 11 12  1  0
 12 13  1  0
 13 14  1  0
 14 15  1  0
 15 16  1  0
 16 17  1  0
 17 18  1  0
 18 19  1  0
 19 20  2  0
 20 21  1  0
 21 22  2  0
 22 23  1  0
 23 24  2  0
 24 25  1  0
 25 26  2  0
 26 27  1  0
 10  5  1  0
 16 11  1  0
 27 19  1  0
 26 21  1  0
M  END
$$$$
