
     RDKit          3D

 28 31  0  0  0  0  0  0  0  0999 V2000
  -76.0430  -20.8147   33.7440 N   0  0  0  0  0  0  0  0  0  0  0  0
  -76.5549  -19.2337   33.3979 S   0  0  0  0  0  0  0  0  0  0  0  0
  -75.3421  -18.4486   33.5270 O   0  0  0  0  0  0  0  0  0  0  0  0
  -77.7216  -19.0283   34.2319 O   0  0  0  0  0  0  0  0  0  0  0  0
  -77.1050  -19.3396   31.7116 C   0  0  0  0  0  0  0  0  0  0  0  0
  -77.7910  -20.5127   31.3425 C   0  0  0  0  0  0  0  0  0  0  0  0
  -78.1919  -20.6557   30.0265 C   0  0  0  0  0  0  0  0  0  0  0  0
  -77.9727  -19.7209   29.0799 N   0  0  0  0  0  0  0  0  0  0  0  0
  -77.3273  -18.5917   29.4759 C   0  0  0  0  0  0  0  0  0  0  0  0
  -76.8520  -18.3242   30.7709 C   0  0  0  0  0  0  0  0  0  0  0  0
  -76.2036  -17.1274   31.0812 N   0  0  0  0  0  0  0  0  0  0  0  0
  -77.0467  -16.1241   31.7527 C   0  0  0  0  0  0  0  0  0  0  0  0
  -76.2112  -14.9059   32.1313 C   0  0  0  0  0  0  0  0  0  0  0  0
  -75.6112  -14.2365   30.8945 C   0  0  0  0  0  0  0  0  0  0  0  0
  -75.4201  -15.2119   29.7300 C   0  0  0  0  0  0  0  0  0  0  0  0
  -75.1344  -16.6440   30.1947 C   0  0  0  0  0  0  0  0  0  0  0  0
  -73.9009  -16.6484   30.9116 O   0  0  0  0  0  0  0  0  0  0  0  0
  -73.3161  -17.9401   30.9168 C   0  0  0  0  0  0  0  0  0  0  0  0
  -72.2626  -17.9584   31.9172 N   0  0  0  0  0  0  0  0  0  0  0  0
  -71.5723  -19.1104   32.0707 C   0  0  0  0  0  0  0  0  0  0  0  0
  -71.4461  -19.8335   33.1577 N   0  0  0  0  0  0  0  0  0  0  0  0
  -70.6472  -20.8957   32.8025 C   0  0  0  0  0  0  0  0  0  0  0  0
  -70.2078  -21.9877   33.5685 C   0  0  0  0  0  0  0  0  0  0  0  0
  -69.3826  -22.9473   32.9612 C   0  0  0  0  0  0  0  0  0  0  0  0
  -69.0059  -22.8232   31.6220 C   0  0  0  0  0  0  0  0  0  0  0  0
  -69.4403  -21.7415   30.8394 C   0  0  0  0  0  0  0  0  0  0  0  0
  -70.2583  -20.8015   31.4707 C   0  0  0  0  0  0  0  0  0  0  0  0
  -70.8409  -19.6363   31.0373 N   0  0  0  0  0  0  0  0  0  0  0  0
  1  2  1  0
  2  3  2  0
  2  4  2  0
  2  5  1  0
  5  6  2  0
  6  7  1  0
  7  8  2  0
  8  9  1  0
  9 10  2  0
 10 11  1  0
 11 12  1  0
 12 13  1  0
 13 14  1  0
 14 15  1  0
 15 16  1  0
 16 17  1  0
 17 18  1  0
 18 19  1  0
 19 20  1  0
 20 21  2  0
 21 22  1  0
 22 23  2  0
 23 24  1  0
 24 25  2  0
 25 26  1  0
 26 27  2  0
 27 28  1  0
 10  5  1  0
 16 11  1  0
 28 20  1  0
 27 22  1  0
M  END
$$$$
