
     RDKit          3D

 26 28  0  0  0  0  0  0  0  0999 V2000
  -68.8425    1.3033   45.6135 C   0  0  0  0  0  0  0  0  0  0  0  0
  -67.4990    1.5175   45.1001 N   0  0  0  0  0  0  0  0  0  0  0  0
  -66.4505    1.0207   46.0045 C   0  0  0  0  0  0  0  0  0  0  0  0
  -66.3269   -0.4890   46.0534 C   0  0  0  0  0  0  0  0  0  0  0  0
  -67.0430   -1.1992   47.0358 C   0  0  0  0  0  0  0  0  0  0  0  0
  -66.9672   -2.5906   47.1238 C   0  0  0  0  0  0  0  0  0  0  0  0
  -66.1803   -3.2967   46.2219 C   0  0  0  0  0  0  0  0  0  0  0  0
  -65.9967   -4.6525   46.2058 O   0  0  0  0  0  0  0  0  0  0  0  0
  -66.8420   -5.4212   47.0538 C   0  0  0  0  0  0  0  0  0  0  0  0
  -65.4653   -2.5981   45.2439 C   0  0  0  0  0  0  0  0  0  0  0  0
  -65.5031   -1.1965   45.1527 C   0  0  0  0  0  0  0  0  0  0  0  0
  -64.7730   -0.5147   44.1828 N   0  0  0  0  0  0  0  0  0  0  0  0
  -65.4611   -0.4592   42.8817 C   0  0  0  0  0  0  0  0  0  0  0  0
  -64.5155   -0.7329   41.7115 C   0  0  0  0  0  0  0  0  0  0  0  0
  -63.5749   -1.8887   42.0245 C   0  0  0  0  0  0  0  0  0  0  0  0
  -62.7615   -1.6582   43.3082 C   0  0  0  0  0  0  0  0  0  0  0  0
  -63.2953   -0.4904   44.1776 C   0  0  0  0  0  0  0  0  0  0  0  0
  -62.4993   -0.1524   45.3787 N   0  0  0  0  0  0  0  0  0  0  0  0
  -61.1564    0.3504   45.0699 C   0  0  0  0  0  0  0  0  0  0  0  0
  -60.5148    1.0201   46.2859 C   0  0  0  0  0  0  0  0  0  0  0  0
  -60.4876    0.0939   47.4922 C   0  0  0  0  0  0  0  0  0  0  0  0
  -61.8823   -0.4563   47.7708 C   0  0  0  0  0  0  0  0  0  0  0  0
  -62.5320   -1.0822   46.5222 C   0  0  0  0  0  0  0  0  0  0  0  0
  -61.8865   -2.4585   46.2639 C   0  0  0  0  0  0  0  0  0  0  0  0
  -62.5304   -3.5218   46.8398 N   0  0  0  0  0  0  0  0  0  0  0  0
  -60.8423   -2.6515   45.6472 O   0  0  0  0  0  0  0  0  0  0  0  0
  1  2  1  0
  2  3  1  0
  3  4  1  0
  4  5  2  0
  5  6  1  0
  6  7  2  0
  7  8  1  0
  8  9  1  0
  7 10  1  0
 10 11  2  0
 11 12  1  0
 12 13  1  0
 13 14  1  0
 14 15  1  0
 15 16  1  0
 16 17  1  0
 17 18  1  0
 18 19  1  0
 19 20  1  0
 20 21  1  0
 21 22  1  0
 22 23  1  0
 23 24  1  0
 24 25  1  0
 24 26  2  0
 11  4  1  0
 17 12  1  0
 23 18  1  0
M  END
$$$$
