
     RDKit          3D

 19 20  0  0  0  0  0  0  0  0999 V2000
   -9.4785  -20.0159  -17.9564 N   0  0  0  0  0  0  0  0  0  0  0  0
   -8.9715  -20.5335  -19.2219 C   0  0  0  0  0  0  0  0  0  0  0  0
   -8.9414  -19.4546  -20.2941 C   0  0  0  0  0  0  0  0  0  0  0  0
  -10.3335  -19.0741  -20.7543 C   0  0  0  0  0  0  0  0  0  0  0  0
  -11.0903  -19.8944  -21.2780 O   0  0  0  0  0  0  0  0  0  0  0  0
  -10.7622  -17.6471  -20.5645 C   0  0  0  0  0  0  0  0  0  0  0  0
  -11.1979  -17.3400  -19.1587 C   0  0  0  0  0  0  0  0  0  0  0  0
  -10.4044  -16.8640  -18.3437 O   0  0  0  0  0  0  0  0  0  0  0  0
  -12.6281  -17.6560  -18.7820 C   0  0  0  0  0  0  0  0  0  0  0  0
  -12.7201  -18.9618  -18.0069 C   0  0  0  0  0  0  0  0  0  0  0  0
  -14.1404  -19.3482  -17.7422 C   0  0  0  0  0  0  0  0  0  0  0  0
  -14.8870  -19.0283  -16.6255 C   0  0  0  0  0  0  0  0  0  0  0  0
  -16.1373  -19.5646  -16.7771 N   0  0  0  0  0  0  0  0  0  0  0  0
  -16.2291  -20.2297  -17.9774 C   0  0  0  0  0  0  0  0  0  0  0  0
  -17.3060  -20.9186  -18.5482 C   0  0  0  0  0  0  0  0  0  0  0  0
  -17.1068  -21.5089  -19.7999 C   0  0  0  0  0  0  0  0  0  0  0  0
  -15.8796  -21.4129  -20.4515 C   0  0  0  0  0  0  0  0  0  0  0  0
  -14.8134  -20.7201  -19.8665 C   0  0  0  0  0  0  0  0  0  0  0  0
  -14.9885  -20.1151  -18.6047 C   0  0  0  0  0  0  0  0  0  0  0  0
  1  2  1  0
  2  3  1  0
  3  4  1  0
  4  5  2  0
  4  6  1  0
  6  7  1  0
  7  8  2  0
  7  9  1  0
  9 10  1  0
 10 11  1  0
 11 12  2  0
 12 13  1  0
 13 14  1  0
 14 15  2  0
 15 16  1  0
 16 17  2  0
 17 18  1  0
 18 19  2  0
 19 11  1  0
 19 14  1  0
M  END
$$$$
