
     RDKit          3D

 23 25  0  0  0  0  0  0  0  0999 V2000
    4.1527   13.3604    0.3805 N   0  0  0  0  0  0  0  0  0  0  0  0
    3.5299   14.3108    1.2889 C   0  0  0  0  0  0  0  0  0  0  0  0
    2.0327   14.0596    1.4943 C   0  0  0  0  0  0  0  0  0  0  0  0
    1.1730   14.2609    0.2381 C   0  0  0  0  0  0  0  0  0  0  0  0
    0.8911   12.9849   -0.5255 C   0  0  0  0  0  0  0  0  0  0  0  0
    1.6730   12.6887   -1.6497 C   0  0  0  0  0  0  0  0  0  0  0  0
    1.4303   11.5248   -2.3594 C   0  0  0  0  0  0  0  0  0  0  0  0
    0.4665   10.6412   -2.0380 N   0  0  0  0  0  0  0  0  0  0  0  0
   -0.2848   10.9406   -0.9575 C   0  0  0  0  0  0  0  0  0  0  0  0
   -0.1202   12.0773   -0.1605 C   0  0  0  0  0  0  0  0  0  0  0  0
   -1.0524   12.2827    1.0057 C   0  0  0  0  0  0  0  0  0  0  0  0
   -2.3628   12.9353    0.5945 C   0  0  0  0  0  0  0  0  0  0  0  0
   -2.4153   14.0885    0.1660 O   0  0  0  0  0  0  0  0  0  0  0  0
   -3.4610   12.1169    0.7548 N   0  0  0  0  0  0  0  0  0  0  0  0
   -4.7316   12.5210    0.4404 C   0  0  0  0  0  0  0  0  0  0  0  0
   -5.8028   11.7816    0.6033 N   0  0  0  0  0  0  0  0  0  0  0  0
   -6.8508   12.5641    0.1747 C   0  0  0  0  0  0  0  0  0  0  0  0
   -8.2234   12.2796    0.1275 C   0  0  0  0  0  0  0  0  0  0  0  0
   -9.0974   13.2622   -0.3550 C   0  0  0  0  0  0  0  0  0  0  0  0
   -8.6147   14.5020   -0.7820 C   0  0  0  0  0  0  0  0  0  0  0  0
   -7.2483   14.8040   -0.7454 C   0  0  0  0  0  0  0  0  0  0  0  0
   -6.4012   13.8071   -0.2590 C   0  0  0  0  0  0  0  0  0  0  0  0
   -5.0449   13.7497   -0.0822 N   0  0  0  0  0  0  0  0  0  0  0  0
  1  2  1  0
  2  3  1  0
  3  4  1  0
  4  5  1  0
  5  6  2  0
  6  7  1  0
  7  8  2  0
  8  9  1  0
  9 10  2  0
 10 11  1  0
 11 12  1  0
 12 13  2  0
 12 14  1  0
 14 15  1  0
 15 16  2  0
 16 17  1  0
 17 18  2  0
 18 19  1  0
 19 20  2  0
 20 21  1  0
 21 22  2  0
 22 23  1  0
 10  5  1  0
 23 15  1  0
 22 17  1  0
M  END
$$$$
