
     RDKit          3D

 19 20  0  0  0  0  0  0  0  0999 V2000
   19.6998   -5.3592  -13.3944 N   0  0  0  0  0  0  0  0  0  0  0  0
   20.2068   -5.8768  -14.6599 C   0  0  0  0  0  0  0  0  0  0  0  0
   20.2369   -4.7979  -15.7321 C   0  0  0  0  0  0  0  0  0  0  0  0
   18.8448   -4.4175  -16.1923 C   0  0  0  0  0  0  0  0  0  0  0  0
   18.0880   -5.2377  -16.7160 O   0  0  0  0  0  0  0  0  0  0  0  0
   18.4161   -2.9904  -16.0025 C   0  0  0  0  0  0  0  0  0  0  0  0
   17.9804   -2.6833  -14.5967 C   0  0  0  0  0  0  0  0  0  0  0  0
   18.7739   -2.2073  -13.7817 O   0  0  0  0  0  0  0  0  0  0  0  0
   16.5502   -2.9993  -14.2200 C   0  0  0  0  0  0  0  0  0  0  0  0
   16.4582   -4.3051  -13.4449 C   0  0  0  0  0  0  0  0  0  0  0  0
   15.0379   -4.6916  -13.1802 C   0  0  0  0  0  0  0  0  0  0  0  0
   14.2913   -4.3716  -12.0635 C   0  0  0  0  0  0  0  0  0  0  0  0
   13.0410   -4.9079  -12.2151 N   0  0  0  0  0  0  0  0  0  0  0  0
   12.9493   -5.5730  -13.4154 C   0  0  0  0  0  0  0  0  0  0  0  0
   11.8723   -6.2619  -13.9863 C   0  0  0  0  0  0  0  0  0  0  0  0
   12.0715   -6.8522  -15.2379 C   0  0  0  0  0  0  0  0  0  0  0  0
   13.2987   -6.7562  -15.8895 C   0  0  0  0  0  0  0  0  0  0  0  0
   14.3649   -6.0634  -15.3045 C   0  0  0  0  0  0  0  0  0  0  0  0
   14.1898   -5.4584  -14.0427 C   0  0  0  0  0  0  0  0  0  0  0  0
  1  2  1  0
  2  3  1  0
  3  4  1  0
  4  5  2  0
  4  6  1  0
  6  7  1  0
  7  8  2  0
  7  9  1  0
  9 10  1  0
 10 11  1  0
 11 12  2  0
 12 13  1  0
 13 14  1  0
 14 15  2  0
 15 16  1  0
 16 17  2  0
 17 18  1  0
 18 19  2  0
 19 11  1  0
 19 14  1  0
M  END
$$$$
