
     RDKit          3D

 26 28  0  0  0  0  0  0  0  0999 V2000
   -7.5655   -8.3077  -12.6995 C   0  0  0  0  0  0  0  0  0  0  0  0
   -6.7754   -9.2139  -13.5235 N   0  0  0  0  0  0  0  0  0  0  0  0
   -6.1472  -10.2521  -12.7038 C   0  0  0  0  0  0  0  0  0  0  0  0
   -5.3729  -11.2538  -13.5693 C   0  0  0  0  0  0  0  0  0  0  0  0
   -6.2195  -12.0042  -14.6051 C   0  0  0  0  0  0  0  0  0  0  0  0
   -7.2547  -12.9163  -13.9925 C   0  0  0  0  0  0  0  0  0  0  0  0
   -6.9161  -14.2087  -13.5841 C   0  0  0  0  0  0  0  0  0  0  0  0
   -7.8756  -15.0427  -13.0037 C   0  0  0  0  0  0  0  0  0  0  0  0
   -9.1861  -14.5918  -12.8133 C   0  0  0  0  0  0  0  0  0  0  0  0
  -10.1906  -15.3386  -12.2478 O   0  0  0  0  0  0  0  0  0  0  0  0
   -9.8801  -16.6670  -11.8546 C   0  0  0  0  0  0  0  0  0  0  0  0
   -9.5338  -13.2853  -13.2084 C   0  0  0  0  0  0  0  0  0  0  0  0
  -10.8344  -12.9090  -12.9777 O   0  0  0  0  0  0  0  0  0  0  0  0
  -11.1730  -11.5396  -13.1971 C   0  0  0  0  0  0  0  0  0  0  0  0
  -12.6192  -11.3162  -12.7425 C   0  0  0  0  0  0  0  0  0  0  0  0
  -13.0349   -9.9452  -13.0220 N   0  0  0  0  0  0  0  0  0  0  0  0
  -14.3425   -9.6410  -12.6205 C   0  0  0  0  0  0  0  0  0  0  0  0
  -14.8881  -10.2082  -11.5115 N   0  0  0  0  0  0  0  0  0  0  0  0
  -16.1458   -9.8661  -11.1537 C   0  0  0  0  0  0  0  0  0  0  0  0
  -16.9877   -9.0082  -11.7658 N   0  0  0  0  0  0  0  0  0  0  0  0
  -16.4080   -8.4813  -12.8526 C   0  0  0  0  0  0  0  0  0  0  0  0
  -16.9539   -7.5804  -13.7195 N   0  0  0  0  0  0  0  0  0  0  0  0
  -16.0217   -7.3216  -14.6880 C   0  0  0  0  0  0  0  0  0  0  0  0
  -14.9101   -8.0008  -14.4954 N   0  0  0  0  0  0  0  0  0  0  0  0
  -15.1373   -8.7274  -13.3410 C   0  0  0  0  0  0  0  0  0  0  0  0
   -8.5689  -12.4640  -13.8028 C   0  0  0  0  0  0  0  0  0  0  0  0
  1  2  1  0
  2  3  1  0
  3  4  1  0
  4  5  1  0
  5  6  1  0
  6  7  2  0
  7  8  1  0
  8  9  2  0
  9 10  1  0
 10 11  1  0
  9 12  1  0
 12 13  1  0
 13 14  1  0
 14 15  1  0
 15 16  1  0
 16 17  1  0
 17 18  2  0
 18 19  1  0
 19 20  2  0
 20 21  1  0
 21 22  1  0
 22 23  1  0
 23 24  2  0
 24 25  1  0
 12 26  2  0
 26  6  1  0
 25 17  1  0
 25 21  2  0
M  END
$$$$
