
     RDKit          3D

 26 29  0  0  0  0  0  0  0  0999 V2000
  -72.1344    8.1224    8.6401 N   0  0  0  0  0  0  0  0  0  0  0  0
  -72.4102    7.0546    7.7515 C   0  0  0  0  0  0  0  0  0  0  0  0
  -72.7523    5.8047    8.2700 C   0  0  0  0  0  0  0  0  0  0  0  0
  -73.0135    4.7688    7.3893 C   0  0  0  0  0  0  0  0  0  0  0  0
  -72.9859    4.8994    6.0493 N   0  0  0  0  0  0  0  0  0  0  0  0
  -72.7365    6.1451    5.5771 C   0  0  0  0  0  0  0  0  0  0  0  0
  -72.4794    7.2746    6.3609 C   0  0  0  0  0  0  0  0  0  0  0  0
  -72.3230    8.5220    5.7655 N   0  0  0  0  0  0  0  0  0  0  0  0
  -73.1448    9.6407    6.2379 C   0  0  0  0  0  0  0  0  0  0  0  0
  -73.4414   10.5878    5.0790 C   0  0  0  0  0  0  0  0  0  0  0  0
  -74.4968   11.2219    5.0062 O   0  0  0  0  0  0  0  0  0  0  0  0
  -72.3149   10.8588    4.0992 C   0  0  0  0  0  0  0  0  0  0  0  0
  -71.5292    9.5951    3.7586 C   0  0  0  0  0  0  0  0  0  0  0  0
  -71.0995    8.8077    5.0071 C   0  0  0  0  0  0  0  0  0  0  0  0
  -70.0229    9.5803    5.8328 C   0  0  0  0  0  0  0  0  0  0  0  0
  -69.6674    8.9188    7.0964 N   0  0  0  0  0  0  0  0  0  0  0  0
  -68.4650    9.4757    7.7170 C   0  0  0  0  0  0  0  0  0  0  0  0
  -67.2382    8.9755    7.0242 C   0  0  0  0  0  0  0  0  0  0  0  0
  -66.3950    9.7090    6.2092 C   0  0  0  0  0  0  0  0  0  0  0  0
  -65.3884    8.8888    5.7767 N   0  0  0  0  0  0  0  0  0  0  0  0
  -65.5476    7.6256    6.2951 C   0  0  0  0  0  0  0  0  0  0  0  0
  -64.7662    6.4765    6.1244 C   0  0  0  0  0  0  0  0  0  0  0  0
  -65.1708    5.3135    6.7857 C   0  0  0  0  0  0  0  0  0  0  0  0
  -66.3096    5.3035    7.5868 C   0  0  0  0  0  0  0  0  0  0  0  0
  -67.0784    6.4619    7.7477 C   0  0  0  0  0  0  0  0  0  0  0  0
  -66.6948    7.6487    7.0884 C   0  0  0  0  0  0  0  0  0  0  0  0
  1  2  1  0
  2  3  2  0
  3  4  1  0
  4  5  2  0
  5  6  1  0
  6  7  2  0
  7  8  1  0
  8  9  1  0
  9 10  1  0
 10 11  2  0
 10 12  1  0
 12 13  1  0
 13 14  1  0
 14 15  1  0
 15 16  1  0
 16 17  1  0
 17 18  1  0
 18 19  2  0
 19 20  1  0
 20 21  1  0
 21 22  2  0
 22 23  1  0
 23 24  2  0
 24 25  1  0
 25 26  2  0
  7  2  1  0
 14  8  1  0
 26 18  1  0
 26 21  1  0
M  END
$$$$
