
     RDKit          3D

 19 20  0  0  0  0  0  0  0  0999 V2000
    1.1782   12.2927   -7.0485 N   0  0  0  0  0  0  0  0  0  0  0  0
    1.6852   11.7750   -8.3140 C   0  0  0  0  0  0  0  0  0  0  0  0
    1.7152   12.8540   -9.3862 C   0  0  0  0  0  0  0  0  0  0  0  0
    0.3232   13.2344   -9.8464 C   0  0  0  0  0  0  0  0  0  0  0  0
   -0.4336   12.4142  -10.3701 O   0  0  0  0  0  0  0  0  0  0  0  0
   -0.1055   14.6614   -9.6566 C   0  0  0  0  0  0  0  0  0  0  0  0
   -0.5412   14.9685   -8.2508 C   0  0  0  0  0  0  0  0  0  0  0  0
    0.2523   15.4446   -7.4358 O   0  0  0  0  0  0  0  0  0  0  0  0
   -1.9714   14.6526   -7.8741 C   0  0  0  0  0  0  0  0  0  0  0  0
   -2.0635   13.3468   -7.0990 C   0  0  0  0  0  0  0  0  0  0  0  0
   -3.4837   12.9603   -6.8343 C   0  0  0  0  0  0  0  0  0  0  0  0
   -4.2304   13.2802   -5.7176 C   0  0  0  0  0  0  0  0  0  0  0  0
   -5.4807   12.7440   -5.8692 N   0  0  0  0  0  0  0  0  0  0  0  0
   -5.5724   12.0789   -7.0695 C   0  0  0  0  0  0  0  0  0  0  0  0
   -6.6493   11.3899   -7.6404 C   0  0  0  0  0  0  0  0  0  0  0  0
   -6.4501   10.7996   -8.8920 C   0  0  0  0  0  0  0  0  0  0  0  0
   -5.2229   10.8957   -9.5436 C   0  0  0  0  0  0  0  0  0  0  0  0
   -4.1567   11.5885   -8.9587 C   0  0  0  0  0  0  0  0  0  0  0  0
   -4.3319   12.1935   -7.6968 C   0  0  0  0  0  0  0  0  0  0  0  0
  1  2  1  0
  2  3  1  0
  3  4  1  0
  4  5  2  0
  4  6  1  0
  6  7  1  0
  7  8  2  0
  7  9  1  0
  9 10  1  0
 10 11  1  0
 11 12  2  0
 12 13  1  0
 13 14  1  0
 14 15  2  0
 15 16  1  0
 16 17  2  0
 17 18  1  0
 18 19  2  0
 19 11  1  0
 19 14  1  0
M  END
$$$$
