
     RDKit          3D

 24 26  0  0  0  0  0  0  0  0999 V2000
   25.9007  -10.6620   -7.5952 C   0  0  0  0  0  0  0  0  0  0  0  0
   26.3918   -9.3355   -7.4334 O   0  0  0  0  0  0  0  0  0  0  0  0
   25.4988   -8.3103   -7.6172 C   0  0  0  0  0  0  0  0  0  0  0  0
   24.1993   -8.4655   -8.1063 C   0  0  0  0  0  0  0  0  0  0  0  0
   23.3724   -7.3527   -8.2891 C   0  0  0  0  0  0  0  0  0  0  0  0
   23.8342   -6.0645   -7.9996 C   0  0  0  0  0  0  0  0  0  0  0  0
   22.9360   -4.8682   -8.1816 C   0  0  0  0  0  0  0  0  0  0  0  0
   22.1764   -4.5891   -6.9693 N   0  0  0  0  0  0  0  0  0  0  0  0
   25.1341   -5.9105   -7.5014 C   0  0  0  0  0  0  0  0  0  0  0  0
   25.9708   -7.0227   -7.3013 C   0  0  0  0  0  0  0  0  0  0  0  0
   27.3727   -6.8010   -6.7775 C   0  0  0  0  0  0  0  0  0  0  0  0
   28.3995   -6.6300   -7.8812 C   0  0  0  0  0  0  0  0  0  0  0  0
   29.0223   -5.5822   -8.0507 O   0  0  0  0  0  0  0  0  0  0  0  0
   28.6204   -7.7537   -8.6399 N   0  0  0  0  0  0  0  0  0  0  0  0
   29.5853   -7.7911   -9.7132 C   0  0  0  0  0  0  0  0  0  0  0  0
   30.9490   -7.9809   -9.1494 C   0  0  0  0  0  0  0  0  0  0  0  0
   31.7041   -9.0603   -9.2112 N   0  0  0  0  0  0  0  0  0  0  0  0
   32.8622   -8.7345   -8.5458 C   0  0  0  0  0  0  0  0  0  0  0  0
   34.0074   -9.5081   -8.3075 C   0  0  0  0  0  0  0  0  0  0  0  0
   35.0662   -8.9381   -7.5884 C   0  0  0  0  0  0  0  0  0  0  0  0
   34.9857   -7.6255   -7.1159 C   0  0  0  0  0  0  0  0  0  0  0  0
   33.8509   -6.8380   -7.3440 C   0  0  0  0  0  0  0  0  0  0  0  0
   32.8128   -7.4305   -8.0653 C   0  0  0  0  0  0  0  0  0  0  0  0
   31.5859   -6.9720   -8.4641 N   0  0  0  0  0  0  0  0  0  0  0  0
  1  2  1  0
  2  3  1  0
  3  4  2  0
  4  5  1  0
  5  6  2  0
  6  7  1  0
  7  8  1  0
  6  9  1  0
  9 10  2  0
 10 11  1  0
 11 12  1  0
 12 13  2  0
 12 14  1  0
 14 15  1  0
 15 16  1  0
 16 17  2  0
 17 18  1  0
 18 19  2  0
 19 20  1  0
 20 21  2  0
 21 22  1  0
 22 23  2  0
 23 24  1  0
 10  3  1  0
 24 16  1  0
 23 18  1  0
M  END
$$$$
