
     RDKit          3D

 15 16  0  0  0  0  0  0  0  0999 V2000
   15.9362   -5.2681   17.5104 N   0  0  0  0  0  0  0  0  0  0  0  0
   14.8014   -5.6257   16.6677 C   0  0  0  0  0  0  0  0  0  0  0  0
   14.8732   -7.0931   16.2451 C   0  0  0  0  0  0  0  0  0  0  0  0
   13.7356   -7.4866   15.3048 C   0  0  0  0  0  0  0  0  0  0  0  0
   12.4017   -7.5507   16.0302 C   0  0  0  0  0  0  0  0  0  0  0  0
   12.2030   -8.4702   16.8271 O   0  0  0  0  0  0  0  0  0  0  0  0
   11.3885   -6.5165   15.7905 C   0  0  0  0  0  0  0  0  0  0  0  0
   11.5169   -5.3984   14.9827 C   0  0  0  0  0  0  0  0  0  0  0  0
   10.3501   -4.6820   15.0369 N   0  0  0  0  0  0  0  0  0  0  0  0
    9.4480   -5.3037   15.8644 C   0  0  0  0  0  0  0  0  0  0  0  0
    8.1432   -4.9327   16.2124 C   0  0  0  0  0  0  0  0  0  0  0  0
    7.4442   -5.7645   17.0911 C   0  0  0  0  0  0  0  0  0  0  0  0
    8.0294   -6.9200   17.6001 C   0  0  0  0  0  0  0  0  0  0  0  0
    9.3348   -7.2747   17.2410 C   0  0  0  0  0  0  0  0  0  0  0  0
   10.0668   -6.4548   16.3546 C   0  0  0  0  0  0  0  0  0  0  0  0
  1  2  1  0
  2  3  1  0
  3  4  1  0
  4  5  1  0
  5  6  2  0
  5  7  1  0
  7  8  2  0
  8  9  1  0
  9 10  1  0
 10 11  2  0
 11 12  1  0
 12 13  2  0
 13 14  1  0
 14 15  2  0
 15  7  1  0
 15 10  1  0
M  END
$$$$
