
     RDKit          3D

 20 21  0  0  0  0  0  0  0  0999 V2000
   -6.8480  -16.9061   12.3542 C   0  0  0  0  0  0  0  0  0  0  0  0
   -6.7033  -15.5829   12.9584 N   0  0  0  0  0  0  0  0  0  0  0  0
   -7.0911  -14.5195   12.0181 C   0  0  0  0  0  0  0  0  0  0  0  0
   -8.5961  -14.5120   11.7741 C   0  0  0  0  0  0  0  0  0  0  0  0
   -9.0473  -14.7865   10.6595 O   0  0  0  0  0  0  0  0  0  0  0  0
   -9.4693  -14.1953   12.9787 C   0  0  0  0  0  0  0  0  0  0  0  0
  -10.8044  -13.5777   12.6312 C   0  0  0  0  0  0  0  0  0  0  0  0
  -10.8097  -12.1969   12.3417 C   0  0  0  0  0  0  0  0  0  0  0  0
  -11.9912  -11.5263   12.0280 C   0  0  0  0  0  0  0  0  0  0  0  0
  -13.1979  -12.2137   11.9899 C   0  0  0  0  0  0  0  0  0  0  0  0
  -14.2867  -11.4486   11.6741 O   0  0  0  0  0  0  0  0  0  0  0  0
  -15.5322  -12.1264   11.5665 C   0  0  0  0  0  0  0  0  0  0  0  0
  -13.2027  -13.5804   12.2679 C   0  0  0  0  0  0  0  0  0  0  0  0
  -12.0203  -14.2872   12.5826 C   0  0  0  0  0  0  0  0  0  0  0  0
  -12.1872  -15.6553   12.8305 N   0  0  0  0  0  0  0  0  0  0  0  0
  -11.4837  -16.5732   11.9304 C   0  0  0  0  0  0  0  0  0  0  0  0
  -12.1348  -17.9541   12.0287 C   0  0  0  0  0  0  0  0  0  0  0  0
  -12.1725  -18.4421   13.4772 C   0  0  0  0  0  0  0  0  0  0  0  0
  -12.8515  -17.4144   14.3828 C   0  0  0  0  0  0  0  0  0  0  0  0
  -12.2062  -16.0340   14.2455 C   0  0  0  0  0  0  0  0  0  0  0  0
  1  2  1  0
  2  3  1  0
  3  4  1  0
  4  5  2  0
  4  6  1  0
  6  7  1  0
  7  8  2  0
  8  9  1  0
  9 10  2  0
 10 11  1  0
 11 12  1  0
 10 13  1  0
 13 14  2  0
 14 15  1  0
 15 16  1  0
 16 17  1  0
 17 18  1  0
 18 19  1  0
 19 20  1  0
 14  7  1  0
 20 15  1  0
M  END
$$$$
