
     RDKit          3D

 30 33  0  0  0  0  0  0  0  0999 V2000
  -27.3715    1.3730   22.3522 N   0  0  0  0  0  0  0  0  0  0  0  0
  -28.2524    1.1793   21.3158 C   0  0  0  0  0  0  0  0  0  0  0  0
  -29.1458    0.3430   21.3570 O   0  0  0  0  0  0  0  0  0  0  0  0
  -28.0742    2.0923   20.1666 C   0  0  0  0  0  0  0  0  0  0  0  0
  -28.4457    3.4306   20.4002 C   0  0  0  0  0  0  0  0  0  0  0  0
  -28.3409    4.3794   19.3799 C   0  0  0  0  0  0  0  0  0  0  0  0
  -27.8648    3.9857   18.1385 C   0  0  0  0  0  0  0  0  0  0  0  0
  -27.7467    4.8745   17.1028 O   0  0  0  0  0  0  0  0  0  0  0  0
  -27.4946    2.6636   17.9052 C   0  0  0  0  0  0  0  0  0  0  0  0
  -27.5858    1.6807   18.9108 C   0  0  0  0  0  0  0  0  0  0  0  0
  -27.1770    0.3788   18.5365 N   0  0  0  0  0  0  0  0  0  0  0  0
  -28.3685   -0.4275   18.1896 C   0  0  0  0  0  0  0  0  0  0  0  0
  -27.9407   -1.6957   17.4576 C   0  0  0  0  0  0  0  0  0  0  0  0
  -26.9547   -2.4954   18.2991 C   0  0  0  0  0  0  0  0  0  0  0  0
  -25.7603   -1.6285   18.6907 C   0  0  0  0  0  0  0  0  0  0  0  0
  -26.1950   -0.3278   19.4041 C   0  0  0  0  0  0  0  0  0  0  0  0
  -24.9591    0.5629   19.6797 C   0  0  0  0  0  0  0  0  0  0  0  0
  -23.9430   -0.0686   20.6389 C   0  0  0  0  0  0  0  0  0  0  0  0
  -22.8917    0.9624   21.0652 C   0  0  0  0  0  0  0  0  0  0  0  0
  -21.9033    0.4295   22.0030 N   0  0  0  0  0  0  0  0  0  0  0  0
  -20.8866   -0.4376   21.3821 C   0  0  0  0  0  0  0  0  0  0  0  0
  -19.9497    0.2616   20.4289 C   0  0  0  0  0  0  0  0  0  0  0  0
  -20.2998    0.3345   19.1007 N   0  0  0  0  0  0  0  0  0  0  0  0
  -19.4809    0.9888   18.2473 C   0  0  0  0  0  0  0  0  0  0  0  0
  -18.3103    1.5976   18.5201 N   0  0  0  0  0  0  0  0  0  0  0  0
  -18.0067    1.4789   19.8220 C   0  0  0  0  0  0  0  0  0  0  0  0
  -16.8966    1.9684   20.4486 N   0  0  0  0  0  0  0  0  0  0  0  0
  -16.9772    1.6100   21.7697 C   0  0  0  0  0  0  0  0  0  0  0  0
  -18.0731    0.9268   22.0267 N   0  0  0  0  0  0  0  0  0  0  0  0
  -18.7366    0.8467   20.8173 C   0  0  0  0  0  0  0  0  0  0  0  0
  1  2  1  0
  2  3  2  0
  2  4  1  0
  4  5  2  0
  5  6  1  0
  6  7  2  0
  7  8  1  0
  7  9  1  0
  9 10  2  0
 10 11  1  0
 11 12  1  0
 12 13  1  0
 13 14  1  0
 14 15  1  0
 15 16  1  0
 16 17  1  0
 17 18  1  0
 18 19  1  0
 19 20  1  0
 20 21  1  0
 21 22  1  0
 22 23  2  0
 23 24  1  0
 24 25  2  0
 25 26  1  0
 26 27  1  0
 27 28  1  0
 28 29  2  0
 29 30  1  0
 10  4  1  0
 16 11  1  0
 30 22  1  0
 30 26  2  0
M  END
$$$$
