
     RDKit          3D

 20 21  0  0  0  0  0  0  0  0999 V2000
  -11.8081   23.0330   21.5705 N   0  0  0  0  0  0  0  0  0  0  0  0
  -12.3373   21.7917   21.6379 C   0  0  0  0  0  0  0  0  0  0  0  0
  -12.9303   21.3648   22.6149 O   0  0  0  0  0  0  0  0  0  0  0  0
  -12.1068   21.1301   20.4868 O   0  0  0  0  0  0  0  0  0  0  0  0
  -12.5903   19.7829   20.4678 C   0  0  0  0  0  0  0  0  0  0  0  0
  -14.0689   19.7945   20.0542 C   0  0  0  0  0  0  0  0  0  0  0  0
  -14.6522   18.3834   19.9910 C   0  0  0  0  0  0  0  0  0  0  0  0
  -13.5837   17.3184   19.7498 C   0  0  0  0  0  0  0  0  0  0  0  0
  -12.4613   17.8422   18.8599 C   0  0  0  0  0  0  0  0  0  0  0  0
  -11.8204   19.0432   19.4403 N   0  0  0  0  0  0  0  0  0  0  0  0
  -10.4467   18.8336   19.7136 C   0  0  0  0  0  0  0  0  0  0  0  0
  -10.0356   18.2671   20.9370 C   0  0  0  0  0  0  0  0  0  0  0  0
   -8.6894   17.9946   21.1923 C   0  0  0  0  0  0  0  0  0  0  0  0
   -8.2306   17.2987   22.6994 Cl  0  0  0  0  0  0  0  0  0  0  0  0
   -7.7190   18.2653   20.2361 C   0  0  0  0  0  0  0  0  0  0  0  0
   -8.0979   18.8193   19.0144 C   0  0  0  0  0  0  0  0  0  0  0  0
   -9.4479   19.1127   18.7442 C   0  0  0  0  0  0  0  0  0  0  0  0
   -9.7211   19.7350   17.4119 C   0  0  0  0  0  0  0  0  0  0  0  0
  -10.8686   20.4614   17.2848 N   0  0  0  0  0  0  0  0  0  0  0  0
   -8.9426   19.6213   16.4717 O   0  0  0  0  0  0  0  0  0  0  0  0
  1  2  1  0
  2  3  2  0
  2  4  1  0
  4  5  1  0
  5  6  1  0
  6  7  1  0
  7  8  1  0
  8  9  1  0
  9 10  1  0
 10 11  1  0
 11 12  2  0
 12 13  1  0
 13 14  1  0
 13 15  2  0
 15 16  1  0
 16 17  2  0
 17 18  1  0
 18 19  1  0
 18 20  2  0
 10  5  1  0
 17 11  1  0
M  END
$$$$
