
     RDKit          3D

 19 20  0  0  0  0  0  0  0  0999 V2000
   21.6799  -15.7653   -5.3683 N   0  0  0  0  0  0  0  0  0  0  0  0
   20.6095  -14.9820   -5.9856 C   0  0  0  0  0  0  0  0  0  0  0  0
   21.0401  -13.5640   -6.3516 C   0  0  0  0  0  0  0  0  0  0  0  0
   21.9868  -13.5112   -7.5359 C   0  0  0  0  0  0  0  0  0  0  0  0
   22.1289  -14.4172   -8.3505 O   0  0  0  0  0  0  0  0  0  0  0  0
   22.6945  -12.2314   -7.7634 C   0  0  0  0  0  0  0  0  0  0  0  0
   22.2891  -11.4969   -8.8887 C   0  0  0  0  0  0  0  0  0  0  0  0
   22.8153  -10.2295   -9.1126 C   0  0  0  0  0  0  0  0  0  0  0  0
   23.7321   -9.7070   -8.2075 C   0  0  0  0  0  0  0  0  0  0  0  0
   24.3698   -8.1281   -8.4615 Cl  0  0  0  0  0  0  0  0  0  0  0  0
   24.1514  -10.4512   -7.0968 C   0  0  0  0  0  0  0  0  0  0  0  0
   23.6679  -11.7483   -6.8569 C   0  0  0  0  0  0  0  0  0  0  0  0
   24.1325  -12.5296   -5.7914 N   0  0  0  0  0  0  0  0  0  0  0  0
   24.5443  -11.9068   -4.5264 C   0  0  0  0  0  0  0  0  0  0  0  0
   26.0571  -11.7103   -4.4496 C   0  0  0  0  0  0  0  0  0  0  0  0
   26.7983  -13.0174   -4.6737 C   0  0  0  0  0  0  0  0  0  0  0  0
   26.3590  -13.6297   -5.9808 C   0  0  0  0  0  0  0  0  0  0  0  0
   27.1789  -14.0893   -6.7759 O   0  0  0  0  0  0  0  0  0  0  0  0
   24.8565  -13.7668   -6.1824 C   0  0  0  0  0  0  0  0  0  0  0  0
  1  2  1  0
  2  3  1  0
  3  4  1  0
  4  5  2  0
  4  6  1  0
  6  7  2  0
  7  8  1  0
  8  9  2  0
  9 10  1  0
  9 11  1  0
 11 12  2  0
 12 13  1  0
 13 14  1  0
 14 15  1  0
 15 16  1  0
 16 17  1  0
 17 18  2  0
 17 19  1  0
 12  6  1  0
 19 13  1  0
M  END
$$$$
