
     RDKit          3D

 16 17  0  0  0  0  0  0  0  0999 V2000
   27.3114    7.8664  -34.1013 N   0  0  0  0  0  0  0  0  0  0  0  0
   26.0633    7.7747  -33.3398 C   0  0  0  0  0  0  0  0  0  0  0  0
   26.0422    6.4690  -32.5549 C   0  0  0  0  0  0  0  0  0  0  0  0
   26.5175    6.4060  -31.4182 O   0  0  0  0  0  0  0  0  0  0  0  0
   25.5046    5.2484  -33.2787 C   0  0  0  0  0  0  0  0  0  0  0  0
   25.0331    4.1353  -32.3411 C   0  0  0  0  0  0  0  0  0  0  0  0
   23.9223    4.5362  -31.3613 C   0  0  0  0  0  0  0  0  0  0  0  0
   22.7333    5.1608  -32.0215 C   0  0  0  0  0  0  0  0  0  0  0  0
   21.8024    4.5176  -32.8139 C   0  0  0  0  0  0  0  0  0  0  0  0
   20.8893    5.4422  -33.2430 N   0  0  0  0  0  0  0  0  0  0  0  0
   21.2019    6.6862  -32.7474 C   0  0  0  0  0  0  0  0  0  0  0  0
   20.5595    7.9169  -32.9289 C   0  0  0  0  0  0  0  0  0  0  0  0
   21.1022    9.0329  -32.2852 C   0  0  0  0  0  0  0  0  0  0  0  0
   22.2390    8.9191  -31.4892 C   0  0  0  0  0  0  0  0  0  0  0  0
   22.8684    7.6809  -31.3187 C   0  0  0  0  0  0  0  0  0  0  0  0
   22.3459    6.5396  -31.9628 C   0  0  0  0  0  0  0  0  0  0  0  0
  1  2  1  0
  2  3  1  0
  3  4  2  0
  3  5  1  0
  5  6  1  0
  6  7  1  0
  7  8  1  0
  8  9  2  0
  9 10  1  0
 10 11  1  0
 11 12  2  0
 12 13  1  0
 13 14  2  0
 14 15  1  0
 15 16  2  0
 16  8  1  0
 16 11  1  0
M  END
$$$$
