
     RDKit          3D

 26 29  0  0  0  0  0  0  0  0999 V2000
  -18.4260    9.7870    1.4816 N   0  0  0  0  0  0  0  0  0  0  0  0
  -18.3252    8.3771    1.5138 C   0  0  0  0  0  0  0  0  0  0  0  0
  -19.2278    7.6364    2.2743 C   0  0  0  0  0  0  0  0  0  0  0  0
  -19.1678    6.2549    2.2102 C   0  0  0  0  0  0  0  0  0  0  0  0
  -18.3070    5.5756    1.4258 N   0  0  0  0  0  0  0  0  0  0  0  0
  -17.4834    6.3190    0.6490 C   0  0  0  0  0  0  0  0  0  0  0  0
  -17.4402    7.7153    0.6334 C   0  0  0  0  0  0  0  0  0  0  0  0
  -16.6010    8.4793   -0.2070 N   0  0  0  0  0  0  0  0  0  0  0  0
  -17.3007    8.9143   -1.4389 C   0  0  0  0  0  0  0  0  0  0  0  0
  -17.0078    7.9953   -2.6150 C   0  0  0  0  0  0  0  0  0  0  0  0
  -17.8387    7.7667   -3.4951 O   0  0  0  0  0  0  0  0  0  0  0  0
  -15.6215    7.3997   -2.6883 C   0  0  0  0  0  0  0  0  0  0  0  0
  -14.6786    8.1455   -1.7552 C   0  0  0  0  0  0  0  0  0  0  0  0
  -15.1801    8.0686   -0.3037 C   0  0  0  0  0  0  0  0  0  0  0  0
  -14.3411    8.9870    0.6324 C   0  0  0  0  0  0  0  0  0  0  0  0
  -12.8883    8.7457    0.6385 N   0  0  0  0  0  0  0  0  0  0  0  0
  -12.5510    7.4999    1.3450 C   0  0  0  0  0  0  0  0  0  0  0  0
  -11.0685    7.3357    1.4254 C   0  0  0  0  0  0  0  0  0  0  0  0
  -10.3537    7.0626    2.4984 N   0  0  0  0  0  0  0  0  0  0  0  0
   -9.0494    7.0088    2.0687 C   0  0  0  0  0  0  0  0  0  0  0  0
   -7.8761    6.7517    2.7922 C   0  0  0  0  0  0  0  0  0  0  0  0
   -6.6519    6.7581    2.1112 C   0  0  0  0  0  0  0  0  0  0  0  0
   -6.5975    7.0162    0.7390 C   0  0  0  0  0  0  0  0  0  0  0  0
   -7.7582    7.2753    0.0001 C   0  0  0  0  0  0  0  0  0  0  0  0
   -8.9640    7.2602    0.7040 C   0  0  0  0  0  0  0  0  0  0  0  0
  -10.2624    7.4650    0.3196 N   0  0  0  0  0  0  0  0  0  0  0  0
  1  2  1  0
  2  3  2  0
  3  4  1  0
  4  5  2  0
  5  6  1  0
  6  7  2  0
  7  8  1  0
  8  9  1  0
  9 10  1  0
 10 11  2  0
 10 12  1  0
 12 13  1  0
 13 14  1  0
 14 15  1  0
 15 16  1  0
 16 17  1  0
 17 18  1  0
 18 19  2  0
 19 20  1  0
 20 21  2  0
 21 22  1  0
 22 23  2  0
 23 24  1  0
 24 25  2  0
 25 26  1  0
  7  2  1  0
 14  8  1  0
 26 18  1  0
 25 20  1  0
M  END
$$$$
