
     RDKit          3D

 29 32  0  0  0  0  0  0  0  0999 V2000
   13.4583    1.9826    1.1840 N   0  0  0  0  0  0  0  0  0  0  0  0
   14.1668    3.4192    1.7321 S   0  0  0  0  0  0  0  0  0  0  0  0
   13.9414    4.3379    0.6384 O   0  0  0  0  0  0  0  0  0  0  0  0
   15.4810    3.0088    2.1757 O   0  0  0  0  0  0  0  0  0  0  0  0
   13.1946    3.8863    3.1288 C   0  0  0  0  0  0  0  0  0  0  0  0
   12.2308    2.9994    3.6232 C   0  0  0  0  0  0  0  0  0  0  0  0
   11.4978    3.3840    4.7283 C   0  0  0  0  0  0  0  0  0  0  0  0
   11.6619    4.5641    5.3531 N   0  0  0  0  0  0  0  0  0  0  0  0
   12.6057    5.3962    4.8458 C   0  0  0  0  0  0  0  0  0  0  0  0
   13.4122    5.1310    3.7367 C   0  0  0  0  0  0  0  0  0  0  0  0
   14.3584    6.0359    3.2633 N   0  0  0  0  0  0  0  0  0  0  0  0
   13.8535    7.1100    2.3973 C   0  0  0  0  0  0  0  0  0  0  0  0
   13.6349    8.4034    3.1756 C   0  0  0  0  0  0  0  0  0  0  0  0
   14.8839    8.8009    3.9556 C   0  0  0  0  0  0  0  0  0  0  0  0
   15.3390    7.6642    4.8686 C   0  0  0  0  0  0  0  0  0  0  0  0
   15.5268    6.3298    4.1248 C   0  0  0  0  0  0  0  0  0  0  0  0
   16.7969    6.2948    3.2446 C   0  0  0  0  0  0  0  0  0  0  0  0
   18.1196    6.2946    4.0192 C   0  0  0  0  0  0  0  0  0  0  0  0
   18.2113    5.1255    4.8979 N   0  0  0  0  0  0  0  0  0  0  0  0
   19.4945    5.0701    5.6055 C   0  0  0  0  0  0  0  0  0  0  0  0
   20.6287    4.6493    4.7279 C   0  0  0  0  0  0  0  0  0  0  0  0
   21.5214    5.4304    4.1512 N   0  0  0  0  0  0  0  0  0  0  0  0
   22.3502    4.5900    3.4486 C   0  0  0  0  0  0  0  0  0  0  0  0
   23.4666    4.8880    2.6542 C   0  0  0  0  0  0  0  0  0  0  0  0
   24.1523    3.8337    2.0364 C   0  0  0  0  0  0  0  0  0  0  0  0
   23.7343    2.5110    2.2062 C   0  0  0  0  0  0  0  0  0  0  0  0
   22.6217    2.1946    2.9951 C   0  0  0  0  0  0  0  0  0  0  0  0
   21.9580    3.2650    3.5990 C   0  0  0  0  0  0  0  0  0  0  0  0
   20.8601    3.3303    4.4169 N   0  0  0  0  0  0  0  0  0  0  0  0
  1  2  1  0
  2  3  2  0
  2  4  2  0
  2  5  1  0
  5  6  2  0
  6  7  1  0
  7  8  2  0
  8  9  1  0
  9 10  2  0
 10 11  1  0
 11 12  1  0
 12 13  1  0
 13 14  1  0
 14 15  1  0
 15 16  1  0
 16 17  1  0
 17 18  1  0
 18 19  1  0
 19 20  1  0
 20 21  1  0
 21 22  2  0
 22 23  1  0
 23 24  2  0
 24 25  1  0
 25 26  2  0
 26 27  1  0
 27 28  2  0
 28 29  1  0
 10  5  1  0
 16 11  1  0
 29 21  1  0
 28 23  1  0
M  END
$$$$
