
     RDKit          3D

 19 20  0  0  0  0  0  0  0  0999 V2000
   13.5959   33.7083  -39.1299 N   0  0  0  0  0  0  0  0  0  0  0  0
   14.1029   33.1907  -40.3954 C   0  0  0  0  0  0  0  0  0  0  0  0
   14.1329   34.2696  -41.4676 C   0  0  0  0  0  0  0  0  0  0  0  0
   12.7409   34.6500  -41.9278 C   0  0  0  0  0  0  0  0  0  0  0  0
   11.9841   33.8298  -42.4515 O   0  0  0  0  0  0  0  0  0  0  0  0
   12.3122   36.0771  -41.7380 C   0  0  0  0  0  0  0  0  0  0  0  0
   11.8765   36.3842  -40.3322 C   0  0  0  0  0  0  0  0  0  0  0  0
   12.6700   36.8602  -39.5172 O   0  0  0  0  0  0  0  0  0  0  0  0
   10.4463   36.0682  -39.9555 C   0  0  0  0  0  0  0  0  0  0  0  0
   10.3543   34.7624  -39.1804 C   0  0  0  0  0  0  0  0  0  0  0  0
    8.9340   34.3760  -38.9157 C   0  0  0  0  0  0  0  0  0  0  0  0
    8.1873   34.6959  -37.7990 C   0  0  0  0  0  0  0  0  0  0  0  0
    6.9371   34.1596  -37.9506 N   0  0  0  0  0  0  0  0  0  0  0  0
    6.8453   33.4945  -39.1509 C   0  0  0  0  0  0  0  0  0  0  0  0
    5.7684   32.8056  -39.7218 C   0  0  0  0  0  0  0  0  0  0  0  0
    5.9676   32.2153  -40.9734 C   0  0  0  0  0  0  0  0  0  0  0  0
    7.1948   32.3113  -41.6250 C   0  0  0  0  0  0  0  0  0  0  0  0
    8.2610   33.0041  -41.0401 C   0  0  0  0  0  0  0  0  0  0  0  0
    8.0859   33.6091  -39.7782 C   0  0  0  0  0  0  0  0  0  0  0  0
  1  2  1  0
  2  3  1  0
  3  4  1  0
  4  5  2  0
  4  6  1  0
  6  7  1  0
  7  8  2  0
  7  9  1  0
  9 10  1  0
 10 11  1  0
 11 12  2  0
 12 13  1  0
 13 14  1  0
 14 15  2  0
 15 16  1  0
 16 17  2  0
 17 18  1  0
 18 19  2  0
 19 11  1  0
 19 14  1  0
M  END
$$$$
