
     RDKit          3D

 29 32  0  0  0  0  0  0  0  0999 V2000
  -31.7447   -0.2560   -2.9333 N   0  0  0  0  0  0  0  0  0  0  0  0
  -31.9400   -0.2202   -1.5394 C   0  0  0  0  0  0  0  0  0  0  0  0
  -32.7590    0.7881   -1.0076 C   0  0  0  0  0  0  0  0  0  0  0  0
  -33.0779    0.8133    0.3499 C   0  0  0  0  0  0  0  0  0  0  0  0
  -32.6074   -0.2044    1.1757 C   0  0  0  0  0  0  0  0  0  0  0  0
  -33.0022   -0.2113    2.9003 S   0  0  0  0  0  0  0  0  0  0  0  0
  -34.1803   -1.4140    2.9754 N   0  0  0  0  0  0  0  0  0  0  0  0
  -31.8437   -0.6650    3.6312 O   0  0  0  0  0  0  0  0  0  0  0  0
  -33.6908    1.0184    3.2202 O   0  0  0  0  0  0  0  0  0  0  0  0
  -31.8255   -1.2402    0.6595 C   0  0  0  0  0  0  0  0  0  0  0  0
  -31.5046   -1.2794   -0.7044 C   0  0  0  0  0  0  0  0  0  0  0  0
  -30.7580   -2.3789   -1.1528 N   0  0  0  0  0  0  0  0  0  0  0  0
  -31.4837   -3.3257   -2.0055 C   0  0  0  0  0  0  0  0  0  0  0  0
  -30.6573   -4.6027   -2.1387 C   0  0  0  0  0  0  0  0  0  0  0  0
  -29.2698   -4.3365   -2.7264 C   0  0  0  0  0  0  0  0  0  0  0  0
  -28.8896   -2.8562   -2.7061 C   0  0  0  0  0  0  0  0  0  0  0  0
  -29.3203   -2.1386   -1.4129 C   0  0  0  0  0  0  0  0  0  0  0  0
  -28.5063   -2.5998   -0.1617 C   0  0  0  0  0  0  0  0  0  0  0  0
  -27.0394   -2.5258   -0.2241 N   0  0  0  0  0  0  0  0  0  0  0  0
  -26.5543   -1.1527   -0.3764 C   0  0  0  0  0  0  0  0  0  0  0  0
  -25.0623   -1.1408   -0.3495 C   0  0  0  0  0  0  0  0  0  0  0  0
  -24.2473   -0.7718   -1.3174 N   0  0  0  0  0  0  0  0  0  0  0  0
  -22.9798   -0.9578   -0.8197 C   0  0  0  0  0  0  0  0  0  0  0  0
  -21.7359   -0.7275   -1.4248 C   0  0  0  0  0  0  0  0  0  0  0  0
  -20.5723   -1.0045   -0.6956 C   0  0  0  0  0  0  0  0  0  0  0  0
  -20.6463   -1.5007    0.6090 C   0  0  0  0  0  0  0  0  0  0  0  0
  -21.8790   -1.7378    1.2288 C   0  0  0  0  0  0  0  0  0  0  0  0
  -23.0214   -1.4515    0.4790 C   0  0  0  0  0  0  0  0  0  0  0  0
  -24.3588   -1.5650    0.7516 N   0  0  0  0  0  0  0  0  0  0  0  0
  1  2  1  0
  2  3  2  0
  3  4  1  0
  4  5  2  0
  5  6  1  0
  6  7  1  0
  6  8  2  0
  6  9  2  0
  5 10  1  0
 10 11  2  0
 11 12  1  0
 12 13  1  0
 13 14  1  0
 14 15  1  0
 15 16  1  0
 16 17  1  0
 17 18  1  0
 18 19  1  0
 19 20  1  0
 20 21  1  0
 21 22  2  0
 22 23  1  0
 23 24  2  0
 24 25  1  0
 25 26  2  0
 26 27  1  0
 27 28  2  0
 28 29  1  0
 11  2  1  0
 17 12  1  0
 29 21  1  0
 28 23  1  0
M  END
$$$$
