
     RDKit          3D

 19 20  0  0  0  0  0  0  0  0999 V2000
   15.8175    4.3604  -15.0852 N   0  0  0  0  0  0  0  0  0  0  0  0
   16.3245    3.8428  -16.3507 C   0  0  0  0  0  0  0  0  0  0  0  0
   16.3545    4.9217  -17.4229 C   0  0  0  0  0  0  0  0  0  0  0  0
   14.9625    5.3021  -17.8831 C   0  0  0  0  0  0  0  0  0  0  0  0
   14.2057    4.4819  -18.4068 O   0  0  0  0  0  0  0  0  0  0  0  0
   14.5338    6.7292  -17.6933 C   0  0  0  0  0  0  0  0  0  0  0  0
   14.0981    7.0363  -16.2875 C   0  0  0  0  0  0  0  0  0  0  0  0
   14.8916    7.5123  -15.4725 O   0  0  0  0  0  0  0  0  0  0  0  0
   12.6679    6.7203  -15.9108 C   0  0  0  0  0  0  0  0  0  0  0  0
   12.5758    5.4145  -15.1357 C   0  0  0  0  0  0  0  0  0  0  0  0
   11.1556    5.0281  -14.8710 C   0  0  0  0  0  0  0  0  0  0  0  0
   10.4089    5.3480  -13.7543 C   0  0  0  0  0  0  0  0  0  0  0  0
    9.1586    4.8117  -13.9059 N   0  0  0  0  0  0  0  0  0  0  0  0
    9.0669    4.1466  -15.1062 C   0  0  0  0  0  0  0  0  0  0  0  0
    7.9900    3.4577  -15.6771 C   0  0  0  0  0  0  0  0  0  0  0  0
    8.1892    2.8674  -16.9287 C   0  0  0  0  0  0  0  0  0  0  0  0
    9.4164    2.9634  -17.5803 C   0  0  0  0  0  0  0  0  0  0  0  0
   10.4826    3.6562  -16.9953 C   0  0  0  0  0  0  0  0  0  0  0  0
   10.3074    4.2612  -15.7335 C   0  0  0  0  0  0  0  0  0  0  0  0
  1  2  1  0
  2  3  1  0
  3  4  1  0
  4  5  2  0
  4  6  1  0
  6  7  1  0
  7  8  2  0
  7  9  1  0
  9 10  1  0
 10 11  1  0
 11 12  2  0
 12 13  1  0
 13 14  1  0
 14 15  2  0
 15 16  1  0
 16 17  2  0
 17 18  1  0
 18 19  2  0
 19 11  1  0
 19 14  1  0
M  END
$$$$
