
     RDKit          3D

 29 32  0  0  0  0  0  0  0  0999 V2000
    3.9634    5.5410   -7.0752 N   0  0  0  0  0  0  0  0  0  0  0  0
    5.0650    6.4193   -6.6886 C   0  0  0  0  0  0  0  0  0  0  0  0
    5.1483    6.5802   -5.1887 C   0  0  0  0  0  0  0  0  0  0  0  0
    4.5904    7.7466   -4.6206 C   0  0  0  0  0  0  0  0  0  0  0  0
    4.5525    7.9347   -3.2388 C   0  0  0  0  0  0  0  0  0  0  0  0
    5.0566    6.9454   -2.4102 C   0  0  0  0  0  0  0  0  0  0  0  0
    5.0323    7.0732   -1.0527 O   0  0  0  0  0  0  0  0  0  0  0  0
    5.6036    5.7856   -2.9463 C   0  0  0  0  0  0  0  0  0  0  0  0
    5.6841    5.5902   -4.3375 C   0  0  0  0  0  0  0  0  0  0  0  0
    6.2315    4.4004   -4.7987 N   0  0  0  0  0  0  0  0  0  0  0  0
    7.5713    4.3497   -5.3941 C   0  0  0  0  0  0  0  0  0  0  0  0
    8.6756    4.3599   -4.3207 C   0  0  0  0  0  0  0  0  0  0  0  0
    9.0819    5.7750   -3.9028 C   0  0  0  0  0  0  0  0  0  0  0  0
   10.2357    5.7364   -3.0087 N   0  0  0  0  0  0  0  0  0  0  0  0
   11.4662    5.5994   -3.5401 C   0  0  0  0  0  0  0  0  0  0  0  0
   11.8345    5.6613   -4.7982 N   0  0  0  0  0  0  0  0  0  0  0  0
   13.1909    5.4434   -4.7965 C   0  0  0  0  0  0  0  0  0  0  0  0
   14.0948    5.3959   -5.8684 C   0  0  0  0  0  0  0  0  0  0  0  0
   15.4475    5.1524   -5.5961 C   0  0  0  0  0  0  0  0  0  0  0  0
   15.8906    4.9611   -4.2842 C   0  0  0  0  0  0  0  0  0  0  0  0
   15.0035    5.0052   -3.2013 C   0  0  0  0  0  0  0  0  0  0  0  0
   13.6619    5.2482   -3.5031 C   0  0  0  0  0  0  0  0  0  0  0  0
   12.5395    5.3589   -2.7237 N   0  0  0  0  0  0  0  0  0  0  0  0
    7.7255    3.0855   -6.2632 C   0  0  0  0  0  0  0  0  0  0  0  0
    6.4778    2.8169   -7.0877 C   0  0  0  0  0  0  0  0  0  0  0  0
    5.3446    2.5061   -6.1427 C   0  0  0  0  0  0  0  0  0  0  0  0
    4.5053    1.6404   -6.4121 O   0  0  0  0  0  0  0  0  0  0  0  0
    5.3331    3.2523   -4.8014 C   0  0  0  0  0  0  0  0  0  0  0  0
    5.7391    2.3597   -3.7754 O   0  0  0  0  0  0  0  0  0  0  0  0
  1  2  1  0
  2  3  1  0
  3  4  2  0
  4  5  1  0
  5  6  2  0
  6  7  1  0
  6  8  1  0
  8  9  2  0
  9 10  1  0
 10 11  1  0
 11 12  1  0
 12 13  1  0
 13 14  1  0
 14 15  1  0
 15 16  2  0
 16 17  1  0
 17 18  2  0
 18 19  1  0
 19 20  2  0
 20 21  1  0
 21 22  2  0
 22 23  1  0
 11 24  1  0
 24 25  1  0
 25 26  1  0
 26 27  2  0
 26 28  1  0
 28 29  1  0
  9  3  1  0
 28 10  1  0
 23 15  1  0
 22 17  1  0
M  END
$$$$
