
     RDKit          3D

 23 25  0  0  0  0  0  0  0  0999 V2000
   43.3628   -5.7587   20.2456 C   0  0  0  0  0  0  0  0  0  0  0  0
   44.5070   -6.4541   20.7255 O   0  0  0  0  0  0  0  0  0  0  0  0
   45.3062   -5.7873   21.6130 C   0  0  0  0  0  0  0  0  0  0  0  0
   45.1883   -4.4508   21.9752 C   0  0  0  0  0  0  0  0  0  0  0  0
   46.0799   -3.9013   22.8989 C   0  0  0  0  0  0  0  0  0  0  0  0
   47.0986   -4.6765   23.4896 C   0  0  0  0  0  0  0  0  0  0  0  0
   48.0012   -4.0307   24.5197 C   0  0  0  0  0  0  0  0  0  0  0  0
   47.2554   -3.5401   25.6852 N   0  0  0  0  0  0  0  0  0  0  0  0
   47.2459   -6.0241   23.0996 C   0  0  0  0  0  0  0  0  0  0  0  0
   48.3047   -6.8057   23.6062 N   0  0  0  0  0  0  0  0  0  0  0  0
   47.8920   -8.0347   24.3032 C   0  0  0  0  0  0  0  0  0  0  0  0
   47.9651   -9.2691   23.4231 C   0  0  0  0  0  0  0  0  0  0  0  0
   47.1877  -10.2163   23.5541 O   0  0  0  0  0  0  0  0  0  0  0  0
   49.0657   -9.3104   22.3930 C   0  0  0  0  0  0  0  0  0  0  0  0
   50.1168   -8.2571   22.7118 C   0  0  0  0  0  0  0  0  0  0  0  0
   49.4886   -6.8379   22.7090 C   0  0  0  0  0  0  0  0  0  0  0  0
   50.5010   -5.7926   22.9160 N   0  0  0  0  0  0  0  0  0  0  0  0
   51.3140   -5.9297   24.1156 C   0  0  0  0  0  0  0  0  0  0  0  0
   51.9720   -4.5886   24.4640 C   0  0  0  0  0  0  0  0  0  0  0  0
   52.4237   -3.7966   23.2341 C   0  0  0  0  0  0  0  0  0  0  0  0
   52.5769   -4.7049   22.0220 C   0  0  0  0  0  0  0  0  0  0  0  0
   51.2708   -5.4532   21.7180 C   0  0  0  0  0  0  0  0  0  0  0  0
   46.3328   -6.5575   22.1686 C   0  0  0  0  0  0  0  0  0  0  0  0
  1  2  1  0
  2  3  1  0
  3  4  2  0
  4  5  1  0
  5  6  2  0
  6  7  1  0
  7  8  1  0
  6  9  1  0
  9 10  1  0
 10 11  1  0
 11 12  1  0
 12 13  2  0
 12 14  1  0
 14 15  1  0
 15 16  1  0
 16 17  1  0
 17 18  1  0
 18 19  1  0
 19 20  1  0
 20 21  1  0
 21 22  1  0
  9 23  2  0
 23  3  1  0
 16 10  1  0
 22 17  1  0
M  END
$$$$
