
     RDKit          3D

 17 18  0  0  0  0  0  0  0  0999 V2000
   29.3395   73.6194   -2.0532 C   0  0  0  0  0  0  0  0  0  0  0  0
   28.6559   74.8317   -1.7620 O   0  0  0  0  0  0  0  0  0  0  0  0
   29.4317   75.9167   -1.4612 C   0  0  0  0  0  0  0  0  0  0  0  0
   28.7306   77.0858   -1.2017 C   0  0  0  0  0  0  0  0  0  0  0  0
   29.4105   78.2614   -0.8764 C   0  0  0  0  0  0  0  0  0  0  0  0
   30.8154   78.3051   -0.7886 C   0  0  0  0  0  0  0  0  0  0  0  0
   31.5063   79.6034   -0.4114 C   0  0  0  0  0  0  0  0  0  0  0  0
   30.7324   80.6252    0.4460 C   0  0  0  0  0  0  0  0  0  0  0  0
   29.8239   81.4712   -0.3299 N   0  0  0  0  0  0  0  0  0  0  0  0
   31.5373   77.1259   -1.0879 C   0  0  0  0  0  0  0  0  0  0  0  0
   32.9332   76.9943   -1.0965 N   0  0  0  0  0  0  0  0  0  0  0  0
   33.7015   77.8974   -1.9538 C   0  0  0  0  0  0  0  0  0  0  0  0
   35.0766   77.2779   -2.2105 C   0  0  0  0  0  0  0  0  0  0  0  0
   35.7863   76.9554   -0.8949 C   0  0  0  0  0  0  0  0  0  0  0  0
   34.9102   76.0775   -0.0010 C   0  0  0  0  0  0  0  0  0  0  0  0
   33.5261   76.6945    0.2102 C   0  0  0  0  0  0  0  0  0  0  0  0
   30.8229   75.9463   -1.4033 C   0  0  0  0  0  0  0  0  0  0  0  0
  1  2  1  0
  2  3  1  0
  3  4  2  0
  4  5  1  0
  5  6  2  0
  6  7  1  0
  7  8  1  0
  8  9  1  0
  6 10  1  0
 10 11  1  0
 11 12  1  0
 12 13  1  0
 13 14  1  0
 14 15  1  0
 15 16  1  0
 10 17  2  0
 17  3  1  0
 16 11  1  0
M  END
$$$$
