
     RDKit          3D

 32 35  0  0  0  0  0  0  0  0999 V2000
   20.3127   -8.8144    6.0604 C   0  0  0  0  0  0  0  0  0  0  0  0
   20.8358  -10.0490    6.5360 O   0  0  0  0  0  0  0  0  0  0  0  0
   20.0606  -11.1621    6.3509 C   0  0  0  0  0  0  0  0  0  0  0  0
   18.8344  -11.2050    5.6897 C   0  0  0  0  0  0  0  0  0  0  0  0
   18.1433  -12.4147    5.5666 C   0  0  0  0  0  0  0  0  0  0  0  0
   18.6578  -13.5912    6.1229 C   0  0  0  0  0  0  0  0  0  0  0  0
   17.9816  -14.8332    6.0303 N   0  0  0  0  0  0  0  0  0  0  0  0
   16.5776  -14.8269    6.3909 C   0  0  0  0  0  0  0  0  0  0  0  0
   16.1212  -16.1389    6.0867 O   0  0  0  0  0  0  0  0  0  0  0  0
   16.2941  -14.4920    7.9036 C   0  0  0  0  0  0  0  0  0  0  0  0
   17.0102  -15.4941    8.8468 C   0  0  0  0  0  0  0  0  0  0  0  0
   16.3578  -15.5750   10.2201 C   0  0  0  0  0  0  0  0  0  0  0  0
   14.9266  -16.0353   10.0640 C   0  0  0  0  0  0  0  0  0  0  0  0
   14.3233  -16.6155   10.9703 O   0  0  0  0  0  0  0  0  0  0  0  0
   14.2485  -15.7049    8.7187 C   0  0  0  0  0  0  0  0  0  0  0  0
   12.8476  -15.5957    8.9205 O   0  0  0  0  0  0  0  0  0  0  0  0
   14.8310  -14.4595    8.2208 N   0  0  0  0  0  0  0  0  0  0  0  0
   14.0911  -13.5312    7.4837 C   0  0  0  0  0  0  0  0  0  0  0  0
   14.2244  -12.1628    7.7536 C   0  0  0  0  0  0  0  0  0  0  0  0
   13.5682  -11.1607    7.1188 N   0  0  0  0  0  0  0  0  0  0  0  0
   12.6880  -11.5370    6.1718 C   0  0  0  0  0  0  0  0  0  0  0  0
   12.4694  -12.8534    5.8072 C   0  0  0  0  0  0  0  0  0  0  0  0
   13.2225  -13.8550    6.4225 C   0  0  0  0  0  0  0  0  0  0  0  0
   12.9606  -15.1999    6.0477 N   0  0  0  0  0  0  0  0  0  0  0  0
   19.9214  -13.5641    6.7714 C   0  0  0  0  0  0  0  0  0  0  0  0
   20.4464  -14.7819    7.2815 N   0  0  0  0  0  0  0  0  0  0  0  0
   21.1336  -14.6841    8.5747 C   0  0  0  0  0  0  0  0  0  0  0  0
   21.3687  -16.0979    9.1048 C   0  0  0  0  0  0  0  0  0  0  0  0
   22.0676  -17.0016    8.0830 C   0  0  0  0  0  0  0  0  0  0  0  0
   22.3810  -16.2806    6.7765 C   0  0  0  0  0  0  0  0  0  0  0  0
   21.1681  -15.5301    6.2254 C   0  0  0  0  0  0  0  0  0  0  0  0
   20.5984  -12.3404    6.8794 C   0  0  0  0  0  0  0  0  0  0  0  0
  1  2  1  0
  2  3  1  0
  3  4  2  0
  4  5  1  0
  5  6  2  0
  6  7  1  0
  7  8  1  0
  8  9  1  0
  8 10  1  0
 10 11  1  0
 11 12  1  0
 12 13  1  0
 13 14  2  0
 13 15  1  0
 15 16  1  0
 15 17  1  0
 17 18  1  0
 18 19  2  0
 19 20  1  0
 20 21  2  0
 21 22  1  0
 22 23  2  0
 23 24  1  0
  6 25  1  0
 25 26  1  0
 26 27  1  0
 27 28  1  0
 28 29  1  0
 29 30  1  0
 30 31  1  0
 25 32  2  0
 32  3  1  0
 17 10  1  0
 23 18  1  0
 31 26  1  0
M  END
$$$$
