
     RDKit          3D

 25 28  0  0  0  0  0  0  0  0999 V2000
   29.2475   15.3087  -38.8191 N   0  0  0  0  0  0  0  0  0  0  0  0
   28.0877   14.6044  -38.3984 C   0  0  0  0  0  0  0  0  0  0  0  0
   27.0169   14.4304  -39.2697 C   0  0  0  0  0  0  0  0  0  0  0  0
   25.9622   13.6297  -38.8620 C   0  0  0  0  0  0  0  0  0  0  0  0
   25.9182   12.9828  -37.6778 N   0  0  0  0  0  0  0  0  0  0  0  0
   26.9958   13.1237  -36.8712 C   0  0  0  0  0  0  0  0  0  0  0  0
   28.1185   13.8916  -37.1809 C   0  0  0  0  0  0  0  0  0  0  0  0
   29.2552   14.0166  -36.3528 N   0  0  0  0  0  0  0  0  0  0  0  0
   29.0384   14.9724  -35.2411 C   0  0  0  0  0  0  0  0  0  0  0  0
   29.1950   14.3413  -33.8683 C   0  0  0  0  0  0  0  0  0  0  0  0
   28.4379   14.6200  -32.9362 O   0  0  0  0  0  0  0  0  0  0  0  0
   30.3703   13.4153  -33.6541 C   0  0  0  0  0  0  0  0  0  0  0  0
   31.0206   13.0167  -34.9726 C   0  0  0  0  0  0  0  0  0  0  0  0
   29.9412   12.7300  -36.0271 C   0  0  0  0  0  0  0  0  0  0  0  0
   30.5394   12.0343  -37.2857 C   0  0  0  0  0  0  0  0  0  0  0  0
   31.2042   12.9557  -38.2018 N   0  0  0  0  0  0  0  0  0  0  0  0
   32.4986   13.2604  -38.0131 C   0  0  0  0  0  0  0  0  0  0  0  0
   33.3729   12.7142  -37.2023 N   0  0  0  0  0  0  0  0  0  0  0  0
   34.5401   13.4116  -37.4002 C   0  0  0  0  0  0  0  0  0  0  0  0
   35.7941   13.2540  -36.7927 C   0  0  0  0  0  0  0  0  0  0  0  0
   36.8377   14.1070  -37.1752 C   0  0  0  0  0  0  0  0  0  0  0  0
   36.6369   15.0952  -38.1430 C   0  0  0  0  0  0  0  0  0  0  0  0
   35.3927   15.2673  -38.7613 C   0  0  0  0  0  0  0  0  0  0  0  0
   34.3713   14.4048  -38.3588 C   0  0  0  0  0  0  0  0  0  0  0  0
   33.0608   14.2772  -38.7369 N   0  0  0  0  0  0  0  0  0  0  0  0
  1  2  1  0
  2  3  2  0
  3  4  1  0
  4  5  2  0
  5  6  1  0
  6  7  2  0
  7  8  1  0
  8  9  1  0
  9 10  1  0
 10 11  2  0
 10 12  1  0
 12 13  1  0
 13 14  1  0
 14 15  1  0
 15 16  1  0
 16 17  1  0
 17 18  2  0
 18 19  1  0
 19 20  2  0
 20 21  1  0
 21 22  2  0
 22 23  1  0
 23 24  2  0
 24 25  1  0
  7  2  1  0
 14  8  1  0
 25 17  1  0
 24 19  1  0
M  END
$$$$
