
     RDKit          3D

 16 17  0  0  0  0  0  0  0  0999 V2000
   22.5647   15.9577  -14.1114 N   0  0  0  0  0  0  0  0  0  0  0  0
   23.1263   14.8668  -13.3262 C   0  0  0  0  0  0  0  0  0  0  0  0
   22.0299   14.1792  -12.5158 C   0  0  0  0  0  0  0  0  0  0  0  0
   22.6124   13.0971  -11.6157 C   0  0  0  0  0  0  0  0  0  0  0  0
   21.5449   12.2085  -11.0075 C   0  0  0  0  0  0  0  0  0  0  0  0
   21.4962   11.0089  -11.2946 O   0  0  0  0  0  0  0  0  0  0  0  0
   20.5692   12.8328  -10.0268 C   0  0  0  0  0  0  0  0  0  0  0  0
   19.2634   13.1762  -10.6648 C   0  0  0  0  0  0  0  0  0  0  0  0
   18.3965   12.2903  -11.2768 C   0  0  0  0  0  0  0  0  0  0  0  0
   17.3116   12.9867  -11.7315 N   0  0  0  0  0  0  0  0  0  0  0  0
   17.4392   14.3194  -11.4202 C   0  0  0  0  0  0  0  0  0  0  0  0
   16.5769   15.3908  -11.6830 C   0  0  0  0  0  0  0  0  0  0  0  0
   16.9648   16.6588  -11.2421 C   0  0  0  0  0  0  0  0  0  0  0  0
   18.1665   16.8443  -10.5645 C   0  0  0  0  0  0  0  0  0  0  0  0
   19.0162   15.7615  -10.3088 C   0  0  0  0  0  0  0  0  0  0  0  0
   18.6516   14.4704  -10.7455 C   0  0  0  0  0  0  0  0  0  0  0  0
  1  2  1  0
  2  3  1  0
  3  4  1  0
  4  5  1  0
  5  6  2  0
  5  7  1  0
  7  8  1  0
  8  9  2  0
  9 10  1  0
 10 11  1  0
 11 12  2  0
 12 13  1  0
 13 14  2  0
 14 15  1  0
 15 16  2  0
 16  8  1  0
 16 11  1  0
M  END
$$$$
