
     RDKit          3D

 32 35  0  0  0  0  0  0  0  0999 V2000
   15.4342   54.4626   -9.6673 C   0  0  0  0  0  0  0  0  0  0  0  0
   15.6006   53.0312   -9.6663 N   0  0  0  0  0  0  0  0  0  0  0  0
   16.5963   52.4252   -8.9278 C   0  0  0  0  0  0  0  0  0  0  0  0
   17.4443   53.0570   -8.3029 O   0  0  0  0  0  0  0  0  0  0  0  0
   16.5641   50.9072   -8.9669 C   0  0  0  0  0  0  0  0  0  0  0  0
   16.1499   50.2901   -7.6496 C   0  0  0  0  0  0  0  0  0  0  0  0
   14.8148   50.4546   -7.2314 C   0  0  0  0  0  0  0  0  0  0  0  0
   14.3491   49.8623   -6.0562 C   0  0  0  0  0  0  0  0  0  0  0  0
   15.2035   49.0794   -5.2911 C   0  0  0  0  0  0  0  0  0  0  0  0
   14.8830   48.4358   -4.1267 O   0  0  0  0  0  0  0  0  0  0  0  0
   13.5968   48.7074   -3.5782 C   0  0  0  0  0  0  0  0  0  0  0  0
   16.5267   48.9047   -5.7082 C   0  0  0  0  0  0  0  0  0  0  0  0
   17.0344   49.5143   -6.8690 C   0  0  0  0  0  0  0  0  0  0  0  0
   18.3804   49.3761   -7.2545 N   0  0  0  0  0  0  0  0  0  0  0  0
   18.9354   48.0087   -7.2262 C   0  0  0  0  0  0  0  0  0  0  0  0
   19.6483   47.6799   -5.9268 C   0  0  0  0  0  0  0  0  0  0  0  0
   19.6139   46.5515   -5.4329 O   0  0  0  0  0  0  0  0  0  0  0  0
   20.5217   48.7568   -5.3392 C   0  0  0  0  0  0  0  0  0  0  0  0
   19.7930   50.0909   -5.3675 C   0  0  0  0  0  0  0  0  0  0  0  0
   19.2790   50.4510   -6.7783 C   0  0  0  0  0  0  0  0  0  0  0  0
   20.4042   50.7071   -7.6903 N   0  0  0  0  0  0  0  0  0  0  0  0
   20.7713   52.1277   -7.6980 C   0  0  0  0  0  0  0  0  0  0  0  0
   21.4426   52.7176   -6.5675 N   0  0  0  0  0  0  0  0  0  0  0  0
   22.7131   52.3912   -6.2555 C   0  0  0  0  0  0  0  0  0  0  0  0
   23.5987   53.1617   -5.6804 N   0  0  0  0  0  0  0  0  0  0  0  0
   24.7093   52.3713   -5.5078 C   0  0  0  0  0  0  0  0  0  0  0  0
   25.9450   52.6781   -4.9229 C   0  0  0  0  0  0  0  0  0  0  0  0
   26.9211   51.6750   -4.8481 C   0  0  0  0  0  0  0  0  0  0  0  0
   26.6695   50.3907   -5.3373 C   0  0  0  0  0  0  0  0  0  0  0  0
   25.4453   50.0676   -5.9313 C   0  0  0  0  0  0  0  0  0  0  0  0
   24.4936   51.0869   -5.9975 C   0  0  0  0  0  0  0  0  0  0  0  0
   23.2190   51.1388   -6.4873 N   0  0  0  0  0  0  0  0  0  0  0  0
  1  2  1  0
  2  3  1  0
  3  4  2  0
  3  5  1  0
  5  6  1  0
  6  7  2  0
  7  8  1  0
  8  9  2  0
  9 10  1  0
 10 11  1  0
  9 12  1  0
 12 13  2  0
 13 14  1  0
 14 15  1  0
 15 16  1  0
 16 17  2  0
 16 18  1  0
 18 19  1  0
 19 20  1  0
 20 21  1  0
 21 22  1  0
 22 23  1  0
 23 24  1  0
 24 25  2  0
 25 26  1  0
 26 27  2  0
 27 28  1  0
 28 29  2  0
 29 30  1  0
 30 31  2  0
 31 32  1  0
 13  6  1  0
 20 14  1  0
 32 24  1  0
 31 26  1  0
M  END
$$$$
