
     RDKit          3D

 19 20  0  0  0  0  0  0  0  0999 V2000
    4.5683    2.6072  -18.4536 N   0  0  0  0  0  0  0  0  0  0  0  0
    3.9290    3.9221  -18.4653 C   0  0  0  0  0  0  0  0  0  0  0  0
    3.2790    4.2691  -17.1331 C   0  0  0  0  0  0  0  0  0  0  0  0
    1.9498    3.5678  -16.9403 C   0  0  0  0  0  0  0  0  0  0  0  0
    1.7919    2.7508  -16.0298 O   0  0  0  0  0  0  0  0  0  0  0  0
    0.8365    3.8970  -17.9205 C   0  0  0  0  0  0  0  0  0  0  0  0
   -0.5409    3.7024  -17.3011 C   0  0  0  0  0  0  0  0  0  0  0  0
   -0.8106    4.6989  -16.1871 C   0  0  0  0  0  0  0  0  0  0  0  0
   -0.0771    5.6721  -15.9991 O   0  0  0  0  0  0  0  0  0  0  0  0
   -2.0445    4.4540  -15.3387 C   0  0  0  0  0  0  0  0  0  0  0  0
   -3.2948    4.7377  -16.1004 C   0  0  0  0  0  0  0  0  0  0  0  0
   -3.8343    5.9848  -16.3420 C   0  0  0  0  0  0  0  0  0  0  0  0
   -4.9739    5.8256  -17.0815 N   0  0  0  0  0  0  0  0  0  0  0  0
   -5.1874    4.4971  -17.3448 C   0  0  0  0  0  0  0  0  0  0  0  0
   -6.2126    3.8785  -18.0700 C   0  0  0  0  0  0  0  0  0  0  0  0
   -6.1781    2.4829  -18.1849 C   0  0  0  0  0  0  0  0  0  0  0  0
   -5.1580    1.7426  -17.5960 C   0  0  0  0  0  0  0  0  0  0  0  0
   -4.1434    2.3771  -16.8690 C   0  0  0  0  0  0  0  0  0  0  0  0
   -4.1538    3.7846  -16.7387 C   0  0  0  0  0  0  0  0  0  0  0  0
  1  2  1  0
  2  3  1  0
  3  4  1  0
  4  5  2  0
  4  6  1  0
  6  7  1  0
  7  8  1  0
  8  9  2  0
  8 10  1  0
 10 11  1  0
 11 12  2  0
 12 13  1  0
 13 14  1  0
 14 15  2  0
 15 16  1  0
 16 17  2  0
 17 18  1  0
 18 19  2  0
 19 11  1  0
 19 14  1  0
M  END
$$$$
