
     RDKit          3D

 18 19  0  0  0  0  0  0  0  0999 V2000
    0.0703   28.8359   -4.6793 N   0  0  0  0  0  0  0  0  0  0  0  0
   -0.7504   27.7937   -5.2855 C   0  0  0  0  0  0  0  0  0  0  0  0
   -0.6477   26.5022   -4.4726 C   0  0  0  0  0  0  0  0  0  0  0  0
   -1.3945   25.3390   -5.1242 C   0  0  0  0  0  0  0  0  0  0  0  0
   -2.9094   25.4515   -5.0525 C   0  0  0  0  0  0  0  0  0  0  0  0
   -3.4781   26.3607   -4.4496 O   0  0  0  0  0  0  0  0  0  0  0  0
   -3.6845   24.3532   -5.7679 C   0  0  0  0  0  0  0  0  0  0  0  0
   -5.1980   24.5201   -5.6497 C   0  0  0  0  0  0  0  0  0  0  0  0
   -5.7265   25.6606   -6.5248 C   0  0  0  0  0  0  0  0  0  0  0  0
   -7.1549   25.9492   -6.2216 C   0  0  0  0  0  0  0  0  0  0  0  0
   -8.2097   25.4721   -6.8486 N   0  0  0  0  0  0  0  0  0  0  0  0
   -9.2955   26.0179   -6.2072 C   0  0  0  0  0  0  0  0  0  0  0  0
  -10.6647   25.8508   -6.4597 C   0  0  0  0  0  0  0  0  0  0  0  0
  -11.5852   26.5269   -5.6484 C   0  0  0  0  0  0  0  0  0  0  0  0
  -11.1510   27.3518   -4.6074 C   0  0  0  0  0  0  0  0  0  0  0  0
   -9.7884   27.5309   -4.3403 C   0  0  0  0  0  0  0  0  0  0  0  0
   -8.8937   26.8456   -5.1648 C   0  0  0  0  0  0  0  0  0  0  0  0
   -7.5249   26.7851   -5.1955 N   0  0  0  0  0  0  0  0  0  0  0  0
  1  2  1  0
  2  3  1  0
  3  4  1  0
  4  5  1  0
  5  6  2  0
  5  7  1  0
  7  8  1  0
  8  9  1  0
  9 10  1  0
 10 11  2  0
 11 12  1  0
 12 13  2  0
 13 14  1  0
 14 15  2  0
 15 16  1  0
 16 17  2  0
 17 18  1  0
 18 10  1  0
 17 12  1  0
M  END
$$$$
