
     RDKit          3D

 30 33  0  0  0  0  0  0  0  0999 V2000
    7.6953    6.8561    0.8077 N   0  0  0  0  0  0  0  0  0  0  0  0
    9.1429    6.8758    0.6033 C   0  0  0  0  0  0  0  0  0  0  0  0
    9.6595    5.5335    0.1236 C   0  0  0  0  0  0  0  0  0  0  0  0
    9.4627    5.1884   -1.2318 C   0  0  0  0  0  0  0  0  0  0  0  0
    9.9134    3.9692   -1.7362 C   0  0  0  0  0  0  0  0  0  0  0  0
   10.5552    3.0809   -0.8796 C   0  0  0  0  0  0  0  0  0  0  0  0
   11.1406    1.5214   -1.4868 S   0  0  0  0  0  0  0  0  0  0  0  0
    9.9429    0.4698   -0.9436 N   0  0  0  0  0  0  0  0  0  0  0  0
   12.3740    1.2078   -0.8055 O   0  0  0  0  0  0  0  0  0  0  0  0
   11.0415    1.5289   -2.9266 O   0  0  0  0  0  0  0  0  0  0  0  0
   10.7737    3.4079    0.4639 C   0  0  0  0  0  0  0  0  0  0  0  0
   10.3387    4.6391    0.9872 C   0  0  0  0  0  0  0  0  0  0  0  0
   10.5325    4.9713    2.3341 N   0  0  0  0  0  0  0  0  0  0  0  0
    9.3474    4.6994    3.1723 C   0  0  0  0  0  0  0  0  0  0  0  0
    9.5994    3.4933    4.0724 C   0  0  0  0  0  0  0  0  0  0  0  0
   10.7834    3.7310    5.0069 C   0  0  0  0  0  0  0  0  0  0  0  0
   11.7351    4.8070    4.4815 C   0  0  0  0  0  0  0  0  0  0  0  0
   11.8570    4.7844    2.9489 C   0  0  0  0  0  0  0  0  0  0  0  0
   12.6840    5.8973    2.6106 O   0  0  0  0  0  0  0  0  0  0  0  0
   13.5388    5.6429    1.5138 C   0  0  0  0  0  0  0  0  0  0  0  0
   14.8021    5.1778    2.0263 N   0  0  0  0  0  0  0  0  0  0  0  0
   15.3921    4.0473    1.5793 C   0  0  0  0  0  0  0  0  0  0  0  0
   16.0819    3.1987    2.3023 N   0  0  0  0  0  0  0  0  0  0  0  0
   16.5336    2.2437    1.4229 C   0  0  0  0  0  0  0  0  0  0  0  0
   17.3306    1.1126    1.6568 C   0  0  0  0  0  0  0  0  0  0  0  0
   17.6680    0.2972    0.5649 C   0  0  0  0  0  0  0  0  0  0  0  0
   17.2187    0.5994   -0.7299 C   0  0  0  0  0  0  0  0  0  0  0  0
   16.4198    1.7217   -0.9792 C   0  0  0  0  0  0  0  0  0  0  0  0
   16.1028    2.5166    0.1258 C   0  0  0  0  0  0  0  0  0  0  0  0
   15.3647    3.6644    0.2575 N   0  0  0  0  0  0  0  0  0  0  0  0
  1  2  1  0
  2  3  1  0
  3  4  2  0
  4  5  1  0
  5  6  2  0
  6  7  1  0
  7  8  1  0
  7  9  2  0
  7 10  2  0
  6 11  1  0
 11 12  2  0
 12 13  1  0
 13 14  1  0
 14 15  1  0
 15 16  1  0
 16 17  1  0
 17 18  1  0
 18 19  1  0
 19 20  1  0
 20 21  1  0
 21 22  1  0
 22 23  2  0
 23 24  1  0
 24 25  2  0
 25 26  1  0
 26 27  2  0
 27 28  1  0
 28 29  2  0
 29 30  1  0
 12  3  1  0
 18 13  1  0
 30 22  1  0
 29 24  1  0
M  END
$$$$
