
     RDKit          3D

 23 25  0  0  0  0  0  0  0  0999 V2000
  -39.1515  -25.8873    8.2334 C   0  0  0  0  0  0  0  0  0  0  0  0
  -38.0073  -26.5827    8.7133 O   0  0  0  0  0  0  0  0  0  0  0  0
  -37.2081  -25.9158    9.6008 C   0  0  0  0  0  0  0  0  0  0  0  0
  -37.3261  -24.5793    9.9629 C   0  0  0  0  0  0  0  0  0  0  0  0
  -36.4344  -24.0298   10.8867 C   0  0  0  0  0  0  0  0  0  0  0  0
  -35.4157  -24.8050   11.4773 C   0  0  0  0  0  0  0  0  0  0  0  0
  -34.5132  -24.1592   12.5075 C   0  0  0  0  0  0  0  0  0  0  0  0
  -35.2590  -23.6686   13.6730 N   0  0  0  0  0  0  0  0  0  0  0  0
  -35.2685  -26.1527   11.0874 C   0  0  0  0  0  0  0  0  0  0  0  0
  -34.2097  -26.9342   11.5940 N   0  0  0  0  0  0  0  0  0  0  0  0
  -34.6224  -28.1632   12.2910 C   0  0  0  0  0  0  0  0  0  0  0  0
  -34.5492  -29.3976   11.4109 C   0  0  0  0  0  0  0  0  0  0  0  0
  -35.3266  -30.3448   11.5419 O   0  0  0  0  0  0  0  0  0  0  0  0
  -33.4486  -29.4389   10.3807 C   0  0  0  0  0  0  0  0  0  0  0  0
  -32.3976  -28.3856   10.6996 C   0  0  0  0  0  0  0  0  0  0  0  0
  -33.0258  -26.9665   10.6967 C   0  0  0  0  0  0  0  0  0  0  0  0
  -32.0133  -25.9212   10.9038 N   0  0  0  0  0  0  0  0  0  0  0  0
  -31.2004  -26.0583   12.1034 C   0  0  0  0  0  0  0  0  0  0  0  0
  -30.5423  -24.7172   12.4518 C   0  0  0  0  0  0  0  0  0  0  0  0
  -30.0907  -23.9252   11.2219 C   0  0  0  0  0  0  0  0  0  0  0  0
  -29.9374  -24.8334   10.0098 C   0  0  0  0  0  0  0  0  0  0  0  0
  -31.2435  -25.5818    9.7058 C   0  0  0  0  0  0  0  0  0  0  0  0
  -36.1815  -26.6860   10.1563 C   0  0  0  0  0  0  0  0  0  0  0  0
  1  2  1  0
  2  3  1  0
  3  4  2  0
  4  5  1  0
  5  6  2  0
  6  7  1  0
  7  8  1  0
  6  9  1  0
  9 10  1  0
 10 11  1  0
 11 12  1  0
 12 13  2  0
 12 14  1  0
 14 15  1  0
 15 16  1  0
 16 17  1  0
 17 18  1  0
 18 19  1  0
 19 20  1  0
 20 21  1  0
 21 22  1  0
  9 23  2  0
 23  3  1  0
 16 10  1  0
 22 17  1  0
M  END
$$$$
