
     RDKit          3D

 25 27  0  0  0  0  0  0  0  0999 V2000
  -28.4608  -16.3125  -42.2035 N   0  0  0  0  0  0  0  0  0  0  0  0
  -29.2987  -15.3469  -41.5020 C   0  0  0  0  0  0  0  0  0  0  0  0
  -29.9785  -15.9155  -40.2484 C   0  0  0  0  0  0  0  0  0  0  0  0
  -30.8804  -17.1674  -40.3841 C   0  0  0  0  0  0  0  0  0  0  0  0
  -30.0520  -18.4641  -40.4513 C   0  0  0  0  0  0  0  0  0  0  0  0
  -30.9397  -19.7075  -40.3853 C   0  0  0  0  0  0  0  0  0  0  0  0
  -32.1931  -19.5976  -41.2525 C   0  0  0  0  0  0  0  0  0  0  0  0
  -32.1171  -18.4336  -42.2362 C   0  0  0  0  0  0  0  0  0  0  0  0
  -31.9448  -17.0827  -41.5140 C   0  0  0  0  0  0  0  0  0  0  0  0
  -33.2127  -16.7711  -40.8870 O   0  0  0  0  0  0  0  0  0  0  0  0
  -33.8590  -15.5477  -41.3390 N   0  0  0  0  0  0  0  0  0  0  0  0
  -33.1100  -14.3551  -40.9815 C   0  0  0  0  0  0  0  0  0  0  0  0
  -33.9120  -13.1078  -41.3381 C   0  0  0  0  0  0  0  0  0  0  0  0
  -34.2022  -13.0307  -42.8322 C   0  0  0  0  0  0  0  0  0  0  0  0
  -34.1690  -14.3884  -43.5376 C   0  0  0  0  0  0  0  0  0  0  0  0
  -34.4454  -15.6433  -42.6691 C   0  0  0  0  0  0  0  0  0  0  0  0
  -35.8665  -16.0199  -42.6400 N   0  0  0  0  0  0  0  0  0  0  0  0
  -36.8240  -15.0749  -42.0617 C   0  0  0  0  0  0  0  0  0  0  0  0
  -37.0681  -15.2192  -40.5598 C   0  0  0  0  0  0  0  0  0  0  0  0
  -37.4767  -16.6395  -40.2036 C   0  0  0  0  0  0  0  0  0  0  0  0
  -36.4635  -17.6377  -40.7482 C   0  0  0  0  0  0  0  0  0  0  0  0
  -36.1257  -17.4181  -42.2325 C   0  0  0  0  0  0  0  0  0  0  0  0
  -37.2620  -17.9902  -43.1182 C   0  0  0  0  0  0  0  0  0  0  0  0
  -36.8720  -18.9330  -44.0440 N   0  0  0  0  0  0  0  0  0  0  0  0
  -38.4495  -17.6845  -43.0361 O   0  0  0  0  0  0  0  0  0  0  0  0
  1  2  1  0
  2  3  1  0
  3  4  1  0
  4  5  1  0
  5  6  1  0
  6  7  1  0
  7  8  1  0
  8  9  1  0
  9 10  1  0
 10 11  1  0
 11 12  1  0
 12 13  1  0
 13 14  1  0
 14 15  1  0
 15 16  1  0
 16 17  1  0
 17 18  1  0
 18 19  1  0
 19 20  1  0
 20 21  1  0
 21 22  1  0
 22 23  1  0
 23 24  1  0
 23 25  2  0
  9  4  1  0
 16 11  1  0
 22 17  1  0
M  END
$$$$
