
     RDKit          3D

 23 25  0  0  0  0  0  0  0  0999 V2000
  -16.9039   14.6785   25.9716 C   0  0  0  0  0  0  0  0  0  0  0  0
  -16.3688   15.9828   26.3444 N   0  0  0  0  0  0  0  0  0  0  0  0
  -15.3053   16.4253   25.4329 C   0  0  0  0  0  0  0  0  0  0  0  0
  -15.7633   16.8720   24.0281 C   0  0  0  0  0  0  0  0  0  0  0  0
  -16.6403   18.1337   24.0930 C   0  0  0  0  0  0  0  0  0  0  0  0
  -17.3073   18.4257   22.7770 C   0  0  0  0  0  0  0  0  0  0  0  0
  -16.8571   19.2973   21.8048 C   0  0  0  0  0  0  0  0  0  0  0  0
  -17.7411   19.2737   20.7618 N   0  0  0  0  0  0  0  0  0  0  0  0
  -18.7632   18.3928   21.0251 C   0  0  0  0  0  0  0  0  0  0  0  0
  -19.8740   18.0437   20.2493 C   0  0  0  0  0  0  0  0  0  0  0  0
  -20.7662   17.1070   20.7791 C   0  0  0  0  0  0  0  0  0  0  0  0
  -20.5543   16.5454   22.0349 C   0  0  0  0  0  0  0  0  0  0  0  0
  -19.4372   16.9047   22.7964 C   0  0  0  0  0  0  0  0  0  0  0  0
  -18.5215   17.8482   22.2857 C   0  0  0  0  0  0  0  0  0  0  0  0
  -14.5753   17.1827   23.2770 O   0  0  0  0  0  0  0  0  0  0  0  0
  -14.2699   16.1879   22.3081 C   0  0  0  0  0  0  0  0  0  0  0  0
  -12.9249   16.3899   21.7710 N   0  0  0  0  0  0  0  0  0  0  0  0
  -12.8022   17.7037   21.1283 C   0  0  0  0  0  0  0  0  0  0  0  0
  -11.3514   17.9328   20.7028 C   0  0  0  0  0  0  0  0  0  0  0  0
  -10.8756   16.8637   19.7323 C   0  0  0  0  0  0  0  0  0  0  0  0
  -11.2014   15.4883   20.2682 C   0  0  0  0  0  0  0  0  0  0  0  0
  -10.4278   14.5425   20.1130 O   0  0  0  0  0  0  0  0  0  0  0  0
  -12.5974   15.2985   20.8380 C   0  0  0  0  0  0  0  0  0  0  0  0
  1  2  1  0
  2  3  1  0
  3  4  1  0
  4  5  1  0
  5  6  1  0
  6  7  2  0
  7  8  1  0
  8  9  1  0
  9 10  2  0
 10 11  1  0
 11 12  2  0
 12 13  1  0
 13 14  2  0
  4 15  1  0
 15 16  1  0
 16 17  1  0
 17 18  1  0
 18 19  1  0
 19 20  1  0
 20 21  1  0
 21 22  2  0
 21 23  1  0
 14  6  1  0
 23 17  1  0
 14  9  1  0
M  END
$$$$
