
     RDKit          3D

 29 32  0  0  0  0  0  0  0  0999 V2000
  -15.7891  -28.7520   20.4266 C   0  0  0  0  0  0  0  0  0  0  0  0
  -15.0040  -28.8470   21.6084 O   0  0  0  0  0  0  0  0  0  0  0  0
  -14.6851  -30.1064   22.0368 C   0  0  0  0  0  0  0  0  0  0  0  0
  -14.9350  -31.2918   21.3539 C   0  0  0  0  0  0  0  0  0  0  0  0
  -14.5661  -32.5164   21.9215 C   0  0  0  0  0  0  0  0  0  0  0  0
  -13.9279  -32.5861   23.1745 C   0  0  0  0  0  0  0  0  0  0  0  0
  -13.5874  -33.9164   23.8155 C   0  0  0  0  0  0  0  0  0  0  0  0
  -13.5250  -35.0510   22.8847 N   0  0  0  0  0  0  0  0  0  0  0  0
  -13.6628  -31.3804   23.8654 C   0  0  0  0  0  0  0  0  0  0  0  0
  -13.0536  -31.4223   25.1448 N   0  0  0  0  0  0  0  0  0  0  0  0
  -14.0404  -31.1996   26.2254 C   0  0  0  0  0  0  0  0  0  0  0  0
  -14.1057  -29.7477   26.6643 C   0  0  0  0  0  0  0  0  0  0  0  0
  -15.1697  -29.1915   26.9470 O   0  0  0  0  0  0  0  0  0  0  0  0
  -12.7934  -29.0129   26.7793 C   0  0  0  0  0  0  0  0  0  0  0  0
  -11.6186  -29.9577   26.5614 C   0  0  0  0  0  0  0  0  0  0  0  0
  -11.7504  -30.6986   25.2202 C   0  0  0  0  0  0  0  0  0  0  0  0
  -10.6236  -31.7354   25.0196 C   0  0  0  0  0  0  0  0  0  0  0  0
   -9.2113  -31.1500   25.0112 C   0  0  0  0  0  0  0  0  0  0  0  0
   -9.0523  -30.2573   23.8754 N   0  0  0  0  0  0  0  0  0  0  0  0
   -7.8423  -29.5574   23.8354 C   0  0  0  0  0  0  0  0  0  0  0  0
   -7.2560  -29.1071   24.9767 N   0  0  0  0  0  0  0  0  0  0  0  0
   -6.1151  -28.3875   24.8825 C   0  0  0  0  0  0  0  0  0  0  0  0
   -5.4254  -28.0481   23.7752 N   0  0  0  0  0  0  0  0  0  0  0  0
   -6.0356  -28.5270   22.6805 C   0  0  0  0  0  0  0  0  0  0  0  0
   -5.6324  -28.3891   21.3831 N   0  0  0  0  0  0  0  0  0  0  0  0
   -6.5352  -29.0456   20.5956 C   0  0  0  0  0  0  0  0  0  0  0  0
   -7.5031  -29.5871   21.3037 N   0  0  0  0  0  0  0  0  0  0  0  0
   -7.2020  -29.2661   22.6149 C   0  0  0  0  0  0  0  0  0  0  0  0
  -14.0489  -30.1580   23.2804 C   0  0  0  0  0  0  0  0  0  0  0  0
  1  2  1  0
  2  3  1  0
  3  4  2  0
  4  5  1  0
  5  6  2  0
  6  7  1  0
  7  8  1  0
  6  9  1  0
  9 10  1  0
 10 11  1  0
 11 12  1  0
 12 13  2  0
 12 14  1  0
 14 15  1  0
 15 16  1  0
 16 17  1  0
 17 18  1  0
 18 19  1  0
 19 20  1  0
 20 21  2  0
 21 22  1  0
 22 23  2  0
 23 24  1  0
 24 25  1  0
 25 26  1  0
 26 27  2  0
 27 28  1  0
  9 29  2  0
 29  3  1  0
 16 10  1  0
 28 20  1  0
 28 24  2  0
M  END
$$$$
