
     RDKit          3D

 28 31  0  0  0  0  0  0  0  0999 V2000
   -6.2348  -10.8192  -29.3681 N   0  0  0  0  0  0  0  0  0  0  0  0
   -5.9921   -9.4796  -29.2029 C   0  0  0  0  0  0  0  0  0  0  0  0
   -6.1755   -8.6898  -30.1195 O   0  0  0  0  0  0  0  0  0  0  0  0
   -5.5188   -9.0705  -27.8536 C   0  0  0  0  0  0  0  0  0  0  0  0
   -6.2619   -9.5035  -26.7427 C   0  0  0  0  0  0  0  0  0  0  0  0
   -5.8711   -9.1459  -25.4540 C   0  0  0  0  0  0  0  0  0  0  0  0
   -4.7449   -8.3502  -25.2709 C   0  0  0  0  0  0  0  0  0  0  0  0
   -4.0045   -7.9140  -26.3737 C   0  0  0  0  0  0  0  0  0  0  0  0
   -4.3653   -8.2720  -27.6863 C   0  0  0  0  0  0  0  0  0  0  0  0
   -3.6120   -7.8416  -28.7995 N   0  0  0  0  0  0  0  0  0  0  0  0
   -4.0742   -6.4785  -29.1950 C   0  0  0  0  0  0  0  0  0  0  0  0
   -3.3792   -6.0326  -30.4682 C   0  0  0  0  0  0  0  0  0  0  0  0
   -3.5019   -4.8932  -30.9193 O   0  0  0  0  0  0  0  0  0  0  0  0
   -2.5379   -7.0751  -31.1513 C   0  0  0  0  0  0  0  0  0  0  0  0
   -1.5377   -7.6472  -30.1539 C   0  0  0  0  0  0  0  0  0  0  0  0
   -2.1306   -7.9764  -28.7539 C   0  0  0  0  0  0  0  0  0  0  0  0
   -1.6774   -9.4074  -28.3152 C   0  0  0  0  0  0  0  0  0  0  0  0
   -0.2181   -9.6190  -28.2595 N   0  0  0  0  0  0  0  0  0  0  0  0
    0.3836   -8.9657  -27.0898 C   0  0  0  0  0  0  0  0  0  0  0  0
    1.8697   -8.8611  -27.2167 C   0  0  0  0  0  0  0  0  0  0  0  0
    2.5979   -7.7758  -27.0241 N   0  0  0  0  0  0  0  0  0  0  0  0
    3.8991   -8.1551  -27.2488 C   0  0  0  0  0  0  0  0  0  0  0  0
    5.0777   -7.3965  -27.2013 C   0  0  0  0  0  0  0  0  0  0  0  0
    6.2975   -8.0343  -27.4691 C   0  0  0  0  0  0  0  0  0  0  0  0
    6.3416   -9.3977  -27.7768 C   0  0  0  0  0  0  0  0  0  0  0  0
    5.1744  -10.1689  -27.8343 C   0  0  0  0  0  0  0  0  0  0  0  0
    3.9741   -9.5085  -27.5625 C   0  0  0  0  0  0  0  0  0  0  0  0
    2.6703   -9.9315  -27.5397 N   0  0  0  0  0  0  0  0  0  0  0  0
  1  2  1  0
  2  3  2  0
  2  4  1  0
  4  5  2  0
  5  6  1  0
  6  7  2  0
  7  8  1  0
  8  9  2  0
  9 10  1  0
 10 11  1  0
 11 12  1  0
 12 13  2  0
 12 14  1  0
 14 15  1  0
 15 16  1  0
 16 17  1  0
 17 18  1  0
 18 19  1  0
 19 20  1  0
 20 21  2  0
 21 22  1  0
 22 23  2  0
 23 24  1  0
 24 25  2  0
 25 26  1  0
 26 27  2  0
 27 28  1  0
  9  4  1  0
 16 10  1  0
 28 20  1  0
 27 22  1  0
M  END
$$$$
