
     RDKit          3D

 15 16  0  0  0  0  0  0  0  0999 V2000
    5.7113  -14.0780   -5.9289 N   0  0  0  0  0  0  0  0  0  0  0  0
    4.5765  -14.4356   -6.7716 C   0  0  0  0  0  0  0  0  0  0  0  0
    4.6483  -15.9029   -7.1942 C   0  0  0  0  0  0  0  0  0  0  0  0
    3.5107  -16.2965   -8.1345 C   0  0  0  0  0  0  0  0  0  0  0  0
    2.1768  -16.3606   -7.4091 C   0  0  0  0  0  0  0  0  0  0  0  0
    1.9781  -17.2801   -6.6122 O   0  0  0  0  0  0  0  0  0  0  0  0
    1.1636  -15.3264   -7.6488 C   0  0  0  0  0  0  0  0  0  0  0  0
    1.2920  -14.2083   -8.4566 C   0  0  0  0  0  0  0  0  0  0  0  0
    0.1252  -13.4918   -8.4024 N   0  0  0  0  0  0  0  0  0  0  0  0
   -0.7769  -14.1136   -7.5749 C   0  0  0  0  0  0  0  0  0  0  0  0
   -2.0817  -13.7426   -7.2269 C   0  0  0  0  0  0  0  0  0  0  0  0
   -2.7807  -14.5744   -6.3482 C   0  0  0  0  0  0  0  0  0  0  0  0
   -2.1955  -15.7299   -5.8392 C   0  0  0  0  0  0  0  0  0  0  0  0
   -0.8901  -16.0846   -6.1983 C   0  0  0  0  0  0  0  0  0  0  0  0
   -0.1581  -15.2647   -7.0847 C   0  0  0  0  0  0  0  0  0  0  0  0
  1  2  1  0
  2  3  1  0
  3  4  1  0
  4  5  1  0
  5  6  2  0
  5  7  1  0
  7  8  2  0
  8  9  1  0
  9 10  1  0
 10 11  2  0
 11 12  1  0
 12 13  2  0
 13 14  1  0
 14 15  2  0
 15  7  1  0
 15 10  1  0
M  END
$$$$
