
     RDKit          3D

 19 20  0  0  0  0  0  0  0  0999 V2000
    0.4150    9.0354   -1.6883 N   0  0  0  0  0  0  0  0  0  0  0  0
   -0.2243   10.3503   -1.6999 C   0  0  0  0  0  0  0  0  0  0  0  0
   -0.8743   10.6973   -0.3678 C   0  0  0  0  0  0  0  0  0  0  0  0
   -2.2035    9.9959   -0.1750 C   0  0  0  0  0  0  0  0  0  0  0  0
   -2.3615    9.1790    0.7355 O   0  0  0  0  0  0  0  0  0  0  0  0
   -3.3168   10.3251   -1.1552 C   0  0  0  0  0  0  0  0  0  0  0  0
   -4.6943   10.1306   -0.5358 C   0  0  0  0  0  0  0  0  0  0  0  0
   -4.9639   11.1270    0.5782 C   0  0  0  0  0  0  0  0  0  0  0  0
   -4.2304   12.1003    0.7662 O   0  0  0  0  0  0  0  0  0  0  0  0
   -6.1978   10.8822    1.4266 C   0  0  0  0  0  0  0  0  0  0  0  0
   -7.4481   11.1658    0.6649 C   0  0  0  0  0  0  0  0  0  0  0  0
   -7.9877   12.4130    0.4233 C   0  0  0  0  0  0  0  0  0  0  0  0
   -9.1273   12.2537   -0.3162 N   0  0  0  0  0  0  0  0  0  0  0  0
   -9.3407   10.9253   -0.5795 C   0  0  0  0  0  0  0  0  0  0  0  0
  -10.3660   10.3067   -1.3046 C   0  0  0  0  0  0  0  0  0  0  0  0
  -10.3315    8.9111   -1.4196 C   0  0  0  0  0  0  0  0  0  0  0  0
   -9.3114    8.1707   -0.8307 C   0  0  0  0  0  0  0  0  0  0  0  0
   -8.2968    8.8053   -0.1037 C   0  0  0  0  0  0  0  0  0  0  0  0
   -8.3072   10.2127    0.0266 C   0  0  0  0  0  0  0  0  0  0  0  0
  1  2  1  0
  2  3  1  0
  3  4  1  0
  4  5  2  0
  4  6  1  0
  6  7  1  0
  7  8  1  0
  8  9  2  0
  8 10  1  0
 10 11  1  0
 11 12  2  0
 12 13  1  0
 13 14  1  0
 14 15  2  0
 15 16  1  0
 16 17  2  0
 17 18  1  0
 18 19  2  0
 19 11  1  0
 19 14  1  0
M  END
$$$$
