
     RDKit          3D

 23 25  0  0  0  0  0  0  0  0999 V2000
   -7.7541  -12.3577    1.6318 N   0  0  0  0  0  0  0  0  0  0  0  0
   -6.8524  -13.1245    2.3168 C   0  0  0  0  0  0  0  0  0  0  0  0
   -5.6620  -13.1032    2.0427 O   0  0  0  0  0  0  0  0  0  0  0  0
   -7.4121  -13.9880    3.3904 C   0  0  0  0  0  0  0  0  0  0  0  0
   -8.3370  -13.4085    4.2781 C   0  0  0  0  0  0  0  0  0  0  0  0
   -8.8930  -14.1602    5.3139 C   0  0  0  0  0  0  0  0  0  0  0  0
   -8.5257  -15.4923    5.4685 C   0  0  0  0  0  0  0  0  0  0  0  0
   -9.2139  -16.4257    6.7390 Cl  0  0  0  0  0  0  0  0  0  0  0  0
   -7.6041  -16.0765    4.5988 C   0  0  0  0  0  0  0  0  0  0  0  0
   -7.0263  -15.3351    3.5478 C   0  0  0  0  0  0  0  0  0  0  0  0
   -6.0447  -16.0392    2.6354 C   0  0  0  0  0  0  0  0  0  0  0  0
   -4.7174  -16.4115    3.3053 C   0  0  0  0  0  0  0  0  0  0  0  0
   -3.8709  -15.2019    3.7113 C   0  0  0  0  0  0  0  0  0  0  0  0
   -2.6374  -15.6835    4.3236 N   0  0  0  0  0  0  0  0  0  0  0  0
   -1.7841  -14.6702    4.7826 C   0  0  0  0  0  0  0  0  0  0  0  0
   -2.2785  -13.5251    5.3252 N   0  0  0  0  0  0  0  0  0  0  0  0
   -1.4149  -12.5856    5.7689 C   0  0  0  0  0  0  0  0  0  0  0  0
   -0.0661  -12.6123    5.7553 N   0  0  0  0  0  0  0  0  0  0  0  0
    0.3713  -13.7566    5.2128 C   0  0  0  0  0  0  0  0  0  0  0  0
    1.6693  -14.1345    5.0303 N   0  0  0  0  0  0  0  0  0  0  0  0
    1.6615  -15.3679    4.4368 C   0  0  0  0  0  0  0  0  0  0  0  0
    0.4375  -15.8056    4.2273 N   0  0  0  0  0  0  0  0  0  0  0  0
   -0.3829  -14.8053    4.7173 C   0  0  0  0  0  0  0  0  0  0  0  0
  1  2  1  0
  2  3  2  0
  2  4  1  0
  4  5  2  0
  5  6  1  0
  6  7  2  0
  7  8  1  0
  7  9  1  0
  9 10  2  0
 10 11  1  0
 11 12  1  0
 12 13  1  0
 13 14  1  0
 14 15  1  0
 15 16  2  0
 16 17  1  0
 17 18  2  0
 18 19  1  0
 19 20  1  0
 20 21  1  0
 21 22  2  0
 22 23  1  0
 10  4  1  0
 23 15  1  0
 23 19  2  0
M  END
$$$$
