
     RDKit          3D

 19 20  0  0  0  0  0  0  0  0999 V2000
  -15.4993    6.4296    0.1907 N   0  0  0  0  0  0  0  0  0  0  0  0
  -14.9922    5.9119   -1.0748 C   0  0  0  0  0  0  0  0  0  0  0  0
  -14.9622    6.9909   -2.1470 C   0  0  0  0  0  0  0  0  0  0  0  0
  -16.3543    7.3713   -2.6072 C   0  0  0  0  0  0  0  0  0  0  0  0
  -17.1110    6.5511   -3.1309 O   0  0  0  0  0  0  0  0  0  0  0  0
  -16.7829    8.7983   -2.4174 C   0  0  0  0  0  0  0  0  0  0  0  0
  -17.2186    9.1054   -1.0116 C   0  0  0  0  0  0  0  0  0  0  0  0
  -16.4252    9.5815   -0.1966 O   0  0  0  0  0  0  0  0  0  0  0  0
  -18.6489    8.7895   -0.6349 C   0  0  0  0  0  0  0  0  0  0  0  0
  -18.7409    7.4837    0.1402 C   0  0  0  0  0  0  0  0  0  0  0  0
  -20.1612    7.0972    0.4049 C   0  0  0  0  0  0  0  0  0  0  0  0
  -20.9078    7.4172    1.5216 C   0  0  0  0  0  0  0  0  0  0  0  0
  -22.1581    6.8809    1.3700 N   0  0  0  0  0  0  0  0  0  0  0  0
  -22.2498    6.2158    0.1698 C   0  0  0  0  0  0  0  0  0  0  0  0
  -23.3267    5.5269   -0.4011 C   0  0  0  0  0  0  0  0  0  0  0  0
  -23.1276    4.9365   -1.6528 C   0  0  0  0  0  0  0  0  0  0  0  0
  -21.9004    5.0326   -2.3044 C   0  0  0  0  0  0  0  0  0  0  0  0
  -20.8342    5.7254   -1.7194 C   0  0  0  0  0  0  0  0  0  0  0  0
  -21.0093    6.3304   -0.4576 C   0  0  0  0  0  0  0  0  0  0  0  0
  1  2  1  0
  2  3  1  0
  3  4  1  0
  4  5  2  0
  4  6  1  0
  6  7  1  0
  7  8  2  0
  7  9  1  0
  9 10  1  0
 10 11  1  0
 11 12  2  0
 12 13  1  0
 13 14  1  0
 14 15  2  0
 15 16  1  0
 16 17  2  0
 17 18  1  0
 18 19  2  0
 19 11  1  0
 19 14  1  0
M  END
$$$$
