
     RDKit          3D

 16 17  0  0  0  0  0  0  0  0999 V2000
   -5.0587    3.0138   -3.5439 N   0  0  0  0  0  0  0  0  0  0  0  0
   -6.3068    2.9221   -2.7824 C   0  0  0  0  0  0  0  0  0  0  0  0
   -6.3279    1.6164   -1.9975 C   0  0  0  0  0  0  0  0  0  0  0  0
   -5.8526    1.5534   -0.8608 O   0  0  0  0  0  0  0  0  0  0  0  0
   -6.8655    0.3958   -2.7213 C   0  0  0  0  0  0  0  0  0  0  0  0
   -7.3370   -0.7173   -1.7837 C   0  0  0  0  0  0  0  0  0  0  0  0
   -8.4478   -0.3164   -0.8039 C   0  0  0  0  0  0  0  0  0  0  0  0
   -9.6368    0.3082   -1.4640 C   0  0  0  0  0  0  0  0  0  0  0  0
  -10.5677   -0.3350   -2.2565 C   0  0  0  0  0  0  0  0  0  0  0  0
  -11.4808    0.5896   -2.6855 N   0  0  0  0  0  0  0  0  0  0  0  0
  -11.1682    1.8336   -2.1900 C   0  0  0  0  0  0  0  0  0  0  0  0
  -11.8106    3.0643   -2.3715 C   0  0  0  0  0  0  0  0  0  0  0  0
  -11.2679    4.1803   -1.7278 C   0  0  0  0  0  0  0  0  0  0  0  0
  -10.1311    4.0665   -0.9318 C   0  0  0  0  0  0  0  0  0  0  0  0
   -9.5017    2.8283   -0.7613 C   0  0  0  0  0  0  0  0  0  0  0  0
  -10.0242    1.6870   -1.4053 C   0  0  0  0  0  0  0  0  0  0  0  0
  1  2  1  0
  2  3  1  0
  3  4  2  0
  3  5  1  0
  5  6  1  0
  6  7  1  0
  7  8  1  0
  8  9  2  0
  9 10  1  0
 10 11  1  0
 11 12  2  0
 12 13  1  0
 13 14  2  0
 14 15  1  0
 15 16  2  0
 16  8  1  0
 16 11  1  0
M  END
$$$$
