
     RDKit          3D

 19 20  0  0  0  0  0  0  0  0999 V2000
  -37.4712  -28.7591   20.0693 N   0  0  0  0  0  0  0  0  0  0  0  0
  -36.9641  -29.2767   18.8039 C   0  0  0  0  0  0  0  0  0  0  0  0
  -36.9341  -28.1978   17.7317 C   0  0  0  0  0  0  0  0  0  0  0  0
  -38.3262  -27.8173   17.2715 C   0  0  0  0  0  0  0  0  0  0  0  0
  -39.0830  -28.6375   16.7478 O   0  0  0  0  0  0  0  0  0  0  0  0
  -38.7549  -26.3903   17.4613 C   0  0  0  0  0  0  0  0  0  0  0  0
  -39.1905  -26.0832   18.8670 C   0  0  0  0  0  0  0  0  0  0  0  0
  -38.3971  -25.6072   19.6820 O   0  0  0  0  0  0  0  0  0  0  0  0
  -40.6208  -26.3991   19.2437 C   0  0  0  0  0  0  0  0  0  0  0  0
  -40.7128  -27.7050   20.0188 C   0  0  0  0  0  0  0  0  0  0  0  0
  -42.1331  -28.0914   20.2835 C   0  0  0  0  0  0  0  0  0  0  0  0
  -42.8797  -27.7715   21.4003 C   0  0  0  0  0  0  0  0  0  0  0  0
  -44.1300  -28.3078   21.2486 N   0  0  0  0  0  0  0  0  0  0  0  0
  -44.2217  -28.9728   20.0484 C   0  0  0  0  0  0  0  0  0  0  0  0
  -45.2987  -29.6618   19.4775 C   0  0  0  0  0  0  0  0  0  0  0  0
  -45.0995  -30.2521   18.2259 C   0  0  0  0  0  0  0  0  0  0  0  0
  -43.8723  -30.1560   17.5743 C   0  0  0  0  0  0  0  0  0  0  0  0
  -42.8061  -29.4632   18.1592 C   0  0  0  0  0  0  0  0  0  0  0  0
  -42.9812  -28.8583   19.4210 C   0  0  0  0  0  0  0  0  0  0  0  0
  1  2  1  0
  2  3  1  0
  3  4  1  0
  4  5  2  0
  4  6  1  0
  6  7  1  0
  7  8  2  0
  7  9  1  0
  9 10  1  0
 10 11  1  0
 11 12  2  0
 12 13  1  0
 13 14  1  0
 14 15  2  0
 15 16  1  0
 16 17  2  0
 17 18  1  0
 18 19  2  0
 19 11  1  0
 19 14  1  0
M  END
$$$$
