
     RDKit          3D

 19 20  0  0  0  0  0  0  0  0999 V2000
    8.7322   13.9291   21.0214 N   0  0  0  0  0  0  0  0  0  0  0  0
    8.0929   15.2440   21.0098 C   0  0  0  0  0  0  0  0  0  0  0  0
    7.4430   15.5910   22.3419 C   0  0  0  0  0  0  0  0  0  0  0  0
    6.1138   14.8897   22.5347 C   0  0  0  0  0  0  0  0  0  0  0  0
    5.9558   14.0727   23.4452 O   0  0  0  0  0  0  0  0  0  0  0  0
    5.0005   15.2189   21.5545 C   0  0  0  0  0  0  0  0  0  0  0  0
    3.6230   15.0243   22.1739 C   0  0  0  0  0  0  0  0  0  0  0  0
    3.3533   16.0208   23.2879 C   0  0  0  0  0  0  0  0  0  0  0  0
    4.0869   16.9940   23.4759 O   0  0  0  0  0  0  0  0  0  0  0  0
    2.1195   15.7759   24.1363 C   0  0  0  0  0  0  0  0  0  0  0  0
    0.8692   16.0596   23.3746 C   0  0  0  0  0  0  0  0  0  0  0  0
    0.3296   17.3067   23.1330 C   0  0  0  0  0  0  0  0  0  0  0  0
   -0.8100   17.1475   22.3935 N   0  0  0  0  0  0  0  0  0  0  0  0
   -1.0234   15.8190   22.1302 C   0  0  0  0  0  0  0  0  0  0  0  0
   -2.0487   15.2004   21.4050 C   0  0  0  0  0  0  0  0  0  0  0  0
   -2.0142   13.8048   21.2901 C   0  0  0  0  0  0  0  0  0  0  0  0
   -0.9941   13.0645   21.8790 C   0  0  0  0  0  0  0  0  0  0  0  0
    0.0205   13.6990   22.6060 C   0  0  0  0  0  0  0  0  0  0  0  0
    0.0101   15.1065   22.7363 C   0  0  0  0  0  0  0  0  0  0  0  0
  1  2  1  0
  2  3  1  0
  3  4  1  0
  4  5  2  0
  4  6  1  0
  6  7  1  0
  7  8  1  0
  8  9  2  0
  8 10  1  0
 10 11  1  0
 11 12  2  0
 12 13  1  0
 13 14  1  0
 14 15  2  0
 15 16  1  0
 16 17  2  0
 17 18  1  0
 18 19  2  0
 19 11  1  0
 19 14  1  0
M  END
$$$$
