
     RDKit          3D

 16 17  0  0  0  0  0  0  0  0999 V2000
  -10.9666    7.7469  -19.4455 N   0  0  0  0  0  0  0  0  0  0  0  0
  -12.2148    7.6552  -18.6840 C   0  0  0  0  0  0  0  0  0  0  0  0
  -12.2359    6.3496  -17.8991 C   0  0  0  0  0  0  0  0  0  0  0  0
  -11.7606    6.2866  -16.7624 O   0  0  0  0  0  0  0  0  0  0  0  0
  -12.7734    5.1290  -18.6229 C   0  0  0  0  0  0  0  0  0  0  0  0
  -13.2450    4.0159  -17.6853 C   0  0  0  0  0  0  0  0  0  0  0  0
  -14.3557    4.4168  -16.7055 C   0  0  0  0  0  0  0  0  0  0  0  0
  -15.5447    5.0414  -17.3656 C   0  0  0  0  0  0  0  0  0  0  0  0
  -16.4756    4.3982  -18.1581 C   0  0  0  0  0  0  0  0  0  0  0  0
  -17.3888    5.3228  -18.5872 N   0  0  0  0  0  0  0  0  0  0  0  0
  -17.0761    6.5668  -18.0916 C   0  0  0  0  0  0  0  0  0  0  0  0
  -17.7186    7.7975  -18.2731 C   0  0  0  0  0  0  0  0  0  0  0  0
  -17.1758    8.9135  -17.6294 C   0  0  0  0  0  0  0  0  0  0  0  0
  -16.0390    8.7997  -16.8334 C   0  0  0  0  0  0  0  0  0  0  0  0
  -15.4097    7.5615  -16.6629 C   0  0  0  0  0  0  0  0  0  0  0  0
  -15.9322    6.4202  -17.3070 C   0  0  0  0  0  0  0  0  0  0  0  0
  1  2  1  0
  2  3  1  0
  3  4  2  0
  3  5  1  0
  5  6  1  0
  6  7  1  0
  7  8  1  0
  8  9  2  0
  9 10  1  0
 10 11  1  0
 11 12  2  0
 12 13  1  0
 13 14  2  0
 14 15  1  0
 15 16  2  0
 16  8  1  0
 16 11  1  0
M  END
$$$$
