
     RDKit          3D

 31 34  0  0  0  0  0  0  0  0999 V2000
  -11.2777  -20.7630  -24.5483 N   0  0  0  0  0  0  0  0  0  0  0  0
  -12.2195  -21.8710  -24.3912 C   0  0  0  0  0  0  0  0  0  0  0  0
  -12.3758  -22.2948  -22.9455 C   0  0  0  0  0  0  0  0  0  0  0  0
  -13.1566  -21.4710  -22.1038 C   0  0  0  0  0  0  0  0  0  0  0  0
  -13.4136  -21.8241  -20.7820 C   0  0  0  0  0  0  0  0  0  0  0  0
  -12.8969  -23.0123  -20.2942 C   0  0  0  0  0  0  0  0  0  0  0  0
  -13.1217  -23.4113  -19.0099 O   0  0  0  0  0  0  0  0  0  0  0  0
  -12.1224  -23.8388  -21.1030 C   0  0  0  0  0  0  0  0  0  0  0  0
  -11.8294  -23.4964  -22.4363 C   0  0  0  0  0  0  0  0  0  0  0  0
  -11.0185  -24.3191  -23.2258 N   0  0  0  0  0  0  0  0  0  0  0  0
   -9.6204  -23.8600  -23.4541 C   0  0  0  0  0  0  0  0  0  0  0  0
   -8.7950  -23.7088  -22.1414 C   0  0  0  0  0  0  0  0  0  0  0  0
   -7.4725  -23.1152  -22.3958 N   0  0  0  0  0  0  0  0  0  0  0  0
   -6.5377  -23.1812  -21.3287 C   0  0  0  0  0  0  0  0  0  0  0  0
   -6.8996  -22.9665  -19.9977 C   0  0  0  0  0  0  0  0  0  0  0  0
   -5.9162  -23.0214  -19.0225 C   0  0  0  0  0  0  0  0  0  0  0  0
   -4.6115  -23.2531  -19.2766 N   0  0  0  0  0  0  0  0  0  0  0  0
   -4.2749  -23.4196  -20.5807 C   0  0  0  0  0  0  0  0  0  0  0  0
   -5.1711  -23.3871  -21.6520 C   0  0  0  0  0  0  0  0  0  0  0  0
   -4.8010  -23.5203  -23.0115 N   0  0  0  0  0  0  0  0  0  0  0  0
   -4.6768  -22.2060  -23.6801 C   0  0  0  0  0  0  0  0  0  0  0  0
   -3.2621  -21.9841  -24.2086 C   0  0  0  0  0  0  0  0  0  0  0  0
   -2.8304  -23.0926  -25.1704 C   0  0  0  0  0  0  0  0  0  0  0  0
   -3.4333  -24.4516  -24.8082 C   0  0  0  0  0  0  0  0  0  0  0  0
   -3.7758  -24.5253  -23.3208 C   0  0  0  0  0  0  0  0  0  0  0  0
   -8.9100  -24.8209  -24.4412 C   0  0  0  0  0  0  0  0  0  0  0  0
   -9.8839  -25.5131  -25.3876 C   0  0  0  0  0  0  0  0  0  0  0  0
  -10.8371  -26.3529  -24.5658 C   0  0  0  0  0  0  0  0  0  0  0  0
  -11.2189  -27.4618  -24.9467 O   0  0  0  0  0  0  0  0  0  0  0  0
  -11.2698  -25.7591  -23.2133 C   0  0  0  0  0  0  0  0  0  0  0  0
  -10.5464  -26.3856  -22.1724 O   0  0  0  0  0  0  0  0  0  0  0  0
  1  2  1  0
  2  3  1  0
  3  4  2  0
  4  5  1  0
  5  6  2  0
  6  7  1  0
  6  8  1  0
  8  9  2  0
  9 10  1  0
 10 11  1  0
 11 12  1  0
 12 13  1  0
 13 14  1  0
 14 15  2  0
 15 16  1  0
 16 17  2  0
 17 18  1  0
 18 19  2  0
 19 20  1  0
 20 21  1  0
 21 22  1  0
 22 23  1  0
 23 24  1  0
 24 25  1  0
 11 26  1  0
 26 27  1  0
 27 28  1  0
 28 29  2  0
 28 30  1  0
 30 31  1  0
  9  3  1  0
 30 10  1  0
 19 14  1  0
 25 20  1  0
M  END
$$$$
