
     RDKit          3D

 16 17  0  0  0  0  0  0  0  0999 V2000
  -24.1396   12.6374   30.9195 N   0  0  0  0  0  0  0  0  0  0  0  0
  -25.0438   12.5055   32.0617 C   0  0  0  0  0  0  0  0  0  0  0  0
  -26.4566   12.1871   31.5888 C   0  0  0  0  0  0  0  0  0  0  0  0
  -27.4184   12.0328   32.7529 C   0  0  0  0  0  0  0  0  0  0  0  0
  -27.0928   12.2934   33.9105 O   0  0  0  0  0  0  0  0  0  0  0  0
  -28.8146   11.5633   32.3912 C   0  0  0  0  0  0  0  0  0  0  0  0
  -29.7080   11.4175   33.6191 C   0  0  0  0  0  0  0  0  0  0  0  0
  -31.0828   10.9543   33.2528 C   0  0  0  0  0  0  0  0  0  0  0  0
  -31.5319    9.6480   33.2484 C   0  0  0  0  0  0  0  0  0  0  0  0
  -32.8416    9.6443   32.8511 N   0  0  0  0  0  0  0  0  0  0  0  0
  -33.2632   10.9264   32.5881 C   0  0  0  0  0  0  0  0  0  0  0  0
  -34.5100   11.3952   32.1564 C   0  0  0  0  0  0  0  0  0  0  0  0
  -34.6559   12.7732   31.9727 C   0  0  0  0  0  0  0  0  0  0  0  0
  -33.5967   13.6448   32.2130 C   0  0  0  0  0  0  0  0  0  0  0  0
  -32.3569   13.1587   32.6442 C   0  0  0  0  0  0  0  0  0  0  0  0
  -32.1821   11.7725   32.8359 C   0  0  0  0  0  0  0  0  0  0  0  0
  1  2  1  0
  2  3  1  0
  3  4  1  0
  4  5  2  0
  4  6  1  0
  6  7  1  0
  7  8  1  0
  8  9  2  0
  9 10  1  0
 10 11  1  0
 11 12  2  0
 12 13  1  0
 13 14  2  0
 14 15  1  0
 15 16  2  0
 16  8  1  0
 16 11  1  0
M  END
$$$$
