
     RDKit          3D

 26 28  0  0  0  0  0  0  0  0999 V2000
  -38.3335  -21.7368   29.3588 N   0  0  0  0  0  0  0  0  0  0  0  0
  -38.7484  -20.5174   28.8957 C   0  0  0  0  0  0  0  0  0  0  0  0
  -38.5103  -19.4903   29.5161 O   0  0  0  0  0  0  0  0  0  0  0  0
  -39.4898  -20.5220   27.6021 C   0  0  0  0  0  0  0  0  0  0  0  0
  -40.4497  -21.5268   27.3871 C   0  0  0  0  0  0  0  0  0  0  0  0
  -41.1833  -21.5622   26.2002 C   0  0  0  0  0  0  0  0  0  0  0  0
  -40.9665  -20.5907   25.2285 C   0  0  0  0  0  0  0  0  0  0  0  0
  -41.8704  -20.6288   23.7656 Cl  0  0  0  0  0  0  0  0  0  0  0  0
  -40.0239  -19.5825   25.4326 C   0  0  0  0  0  0  0  0  0  0  0  0
  -39.2672  -19.5330   26.6196 C   0  0  0  0  0  0  0  0  0  0  0  0
  -38.2475  -18.4309   26.7902 C   0  0  0  0  0  0  0  0  0  0  0  0
  -36.9246  -18.9954   26.9938 N   0  0  0  0  0  0  0  0  0  0  0  0
  -35.9459  -19.1016   25.9979 C   0  0  0  0  0  0  0  0  0  0  0  0
  -36.2521  -19.0621   24.6357 C   0  0  0  0  0  0  0  0  0  0  0  0
  -35.2289  -19.1652   23.7089 C   0  0  0  0  0  0  0  0  0  0  0  0
  -33.9345  -19.3197   24.0369 N   0  0  0  0  0  0  0  0  0  0  0  0
  -33.6558  -19.4092   25.3585 C   0  0  0  0  0  0  0  0  0  0  0  0
  -34.5997  -19.3574   26.3926 C   0  0  0  0  0  0  0  0  0  0  0  0
  -34.2745  -19.5299   27.7529 N   0  0  0  0  0  0  0  0  0  0  0  0
  -34.9920  -20.6292   28.4417 C   0  0  0  0  0  0  0  0  0  0  0  0
  -34.0523  -21.7124   28.9444 C   0  0  0  0  0  0  0  0  0  0  0  0
  -34.4199  -22.5350   29.7867 O   0  0  0  0  0  0  0  0  0  0  0  0
  -32.7013  -21.8152   28.2942 C   0  0  0  0  0  0  0  0  0  0  0  0
  -32.0331  -20.4801   28.1207 C   0  0  0  0  0  0  0  0  0  0  0  0
  -30.8234  -20.3955   27.9045 O   0  0  0  0  0  0  0  0  0  0  0  0
  -32.9130  -19.2473   28.2271 C   0  0  0  0  0  0  0  0  0  0  0  0
  1  2  1  0
  2  3  2  0
  2  4  1  0
  4  5  2  0
  5  6  1  0
  6  7  2  0
  7  8  1  0
  7  9  1  0
  9 10  2  0
 10 11  1  0
 11 12  1  0
 12 13  1  0
 13 14  2  0
 14 15  1  0
 15 16  2  0
 16 17  1  0
 17 18  2  0
 18 19  1  0
 19 20  1  0
 20 21  1  0
 21 22  2  0
 21 23  1  0
 23 24  1  0
 24 25  2  0
 24 26  1  0
 10  4  1  0
 18 13  1  0
 26 19  1  0
M  END
$$$$
