
     RDKit          3D

 15 16  0  0  0  0  0  0  0  0999 V2000
   -8.3935  -15.7575   -3.0003 N   0  0  0  0  0  0  0  0  0  0  0  0
   -9.5283  -16.1151   -3.8430 C   0  0  0  0  0  0  0  0  0  0  0  0
   -9.4566  -17.5825   -4.2656 C   0  0  0  0  0  0  0  0  0  0  0  0
  -10.5941  -17.9760   -5.2059 C   0  0  0  0  0  0  0  0  0  0  0  0
  -11.9280  -18.0401   -4.4805 C   0  0  0  0  0  0  0  0  0  0  0  0
  -12.1267  -18.9596   -3.6836 O   0  0  0  0  0  0  0  0  0  0  0  0
  -12.9412  -17.0059   -4.7202 C   0  0  0  0  0  0  0  0  0  0  0  0
  -12.8128  -15.8878   -5.5280 C   0  0  0  0  0  0  0  0  0  0  0  0
  -13.9796  -15.1714   -5.4738 N   0  0  0  0  0  0  0  0  0  0  0  0
  -14.8817  -15.7931   -4.6463 C   0  0  0  0  0  0  0  0  0  0  0  0
  -16.1865  -15.4222   -4.2983 C   0  0  0  0  0  0  0  0  0  0  0  0
  -16.8855  -16.2539   -3.4196 C   0  0  0  0  0  0  0  0  0  0  0  0
  -16.3004  -17.4094   -2.9106 C   0  0  0  0  0  0  0  0  0  0  0  0
  -14.9949  -17.7641   -3.2697 C   0  0  0  0  0  0  0  0  0  0  0  0
  -14.2629  -16.9442   -4.1562 C   0  0  0  0  0  0  0  0  0  0  0  0
  1  2  1  0
  2  3  1  0
  3  4  1  0
  4  5  1  0
  5  6  2  0
  5  7  1  0
  7  8  2  0
  8  9  1  0
  9 10  1  0
 10 11  2  0
 11 12  1  0
 12 13  2  0
 13 14  1  0
 14 15  2  0
 15  7  1  0
 15 10  1  0
M  END
$$$$
