
     RDKit          3D

 22 23  0  0  0  0  0  0  0  0999 V2000
  -12.9343    1.3666   -9.1777 N   0  0  0  0  0  0  0  0  0  0  0  0
  -11.9350    0.8173  -10.0982 C   0  0  0  0  0  0  0  0  0  0  0  0
  -10.8012    1.8073  -10.3401 C   0  0  0  0  0  0  0  0  0  0  0  0
   -9.6198    1.4584  -10.3149 O   0  0  0  0  0  0  0  0  0  0  0  0
  -11.1262    3.2223  -10.6829 C   0  0  0  0  0  0  0  0  0  0  0  0
  -12.1030    3.4658  -11.6636 C   0  0  0  0  0  0  0  0  0  0  0  0
  -12.3938    4.7724  -12.0560 C   0  0  0  0  0  0  0  0  0  0  0  0
  -11.7055    5.8290  -11.4769 C   0  0  0  0  0  0  0  0  0  0  0  0
  -11.9798    7.0826  -11.8594 F   0  0  0  0  0  0  0  0  0  0  0  0
  -10.7370    5.6063  -10.5037 C   0  0  0  0  0  0  0  0  0  0  0  0
  -10.4361    4.2984  -10.0811 C   0  0  0  0  0  0  0  0  0  0  0  0
   -9.4068    4.1149   -8.9928 C   0  0  0  0  0  0  0  0  0  0  0  0
   -8.1763    3.5695   -9.5101 N   0  0  0  0  0  0  0  0  0  0  0  0
   -6.9870    3.7602   -8.8425 C   0  0  0  0  0  0  0  0  0  0  0  0
   -6.8665    4.5173   -7.8854 O   0  0  0  0  0  0  0  0  0  0  0  0
   -5.8194    2.9618   -9.3192 C   0  0  0  0  0  0  0  0  0  0  0  0
   -5.7679    2.4028  -10.6056 C   0  0  0  0  0  0  0  0  0  0  0  0
   -4.6482    1.6672  -11.0041 C   0  0  0  0  0  0  0  0  0  0  0  0
   -3.5850    1.4990  -10.1235 C   0  0  0  0  0  0  0  0  0  0  0  0
   -2.5141    0.7941  -10.5105 F   0  0  0  0  0  0  0  0  0  0  0  0
   -3.6146    2.0564   -8.8508 C   0  0  0  0  0  0  0  0  0  0  0  0
   -4.7313    2.7920   -8.4485 C   0  0  0  0  0  0  0  0  0  0  0  0
  1  2  1  0
  2  3  1  0
  3  4  2  0
  3  5  1  0
  5  6  2  0
  6  7  1  0
  7  8  2  0
  8  9  1  0
  8 10  1  0
 10 11  2  0
 11 12  1  0
 12 13  1  0
 13 14  1  0
 14 15  2  0
 14 16  1  0
 16 17  2  0
 17 18  1  0
 18 19  2  0
 19 20  1  0
 19 21  1  0
 21 22  2  0
 11  5  1  0
 22 16  1  0
M  END
$$$$
