
     RDKit          3D

 18 19  0  0  0  0  0  0  0  0999 V2000
   17.7024    4.5322   -4.2324 N   0  0  0  0  0  0  0  0  0  0  0  0
   17.1878    5.8911   -4.0788 C   0  0  0  0  0  0  0  0  0  0  0  0
   15.9541    6.1568   -4.9313 C   0  0  0  0  0  0  0  0  0  0  0  0
   14.7341    5.4606   -4.3689 C   0  0  0  0  0  0  0  0  0  0  0  0
   14.3276    4.4018   -4.8518 O   0  0  0  0  0  0  0  0  0  0  0  0
   14.0783    6.0700   -3.1438 C   0  0  0  0  0  0  0  0  0  0  0  0
   12.5571    6.0066   -3.2463 C   0  0  0  0  0  0  0  0  0  0  0  0
   12.0221    6.9680   -4.2927 C   0  0  0  0  0  0  0  0  0  0  0  0
   12.7971    7.7112   -4.9010 O   0  0  0  0  0  0  0  0  0  0  0  0
   10.5795    7.0171   -4.5582 C   0  0  0  0  0  0  0  0  0  0  0  0
   10.0334    7.8515   -5.5212 C   0  0  0  0  0  0  0  0  0  0  0  0
    8.6807    7.6804   -5.5410 N   0  0  0  0  0  0  0  0  0  0  0  0
    8.3094    6.7492   -4.6021 C   0  0  0  0  0  0  0  0  0  0  0  0
    7.0311    6.2739   -4.2808 C   0  0  0  0  0  0  0  0  0  0  0  0
    6.9260    5.3134   -3.2745 C   0  0  0  0  0  0  0  0  0  0  0  0
    8.0581    4.8482   -2.6166 C   0  0  0  0  0  0  0  0  0  0  0  0
    9.3294    5.3343   -2.9499 C   0  0  0  0  0  0  0  0  0  0  0  0
    9.4751    6.3079   -3.9651 C   0  0  0  0  0  0  0  0  0  0  0  0
  1  2  1  0
  2  3  1  0
  3  4  1  0
  4  5  2  0
  4  6  1  0
  6  7  1  0
  7  8  1  0
  8  9  2  0
  8 10  1  0
 10 11  2  0
 11 12  1  0
 12 13  1  0
 13 14  2  0
 14 15  1  0
 15 16  2  0
 16 17  1  0
 17 18  2  0
 18 10  1  0
 18 13  1  0
M  END
$$$$
