
     RDKit          3D

 28 31  0  0  0  0  0  0  0  0999 V2000
  -25.0820   12.9981   25.1868 N   0  0  0  0  0  0  0  0  0  0  0  0
  -24.2889   12.8274   24.0128 C   0  0  0  0  0  0  0  0  0  0  0  0
  -23.8780   13.9544   23.3067 C   0  0  0  0  0  0  0  0  0  0  0  0
  -23.0197   13.7761   22.2374 C   0  0  0  0  0  0  0  0  0  0  0  0
  -22.5144   12.5768   21.8680 N   0  0  0  0  0  0  0  0  0  0  0  0
  -22.8855   11.5053   22.6158 C   0  0  0  0  0  0  0  0  0  0  0  0
  -23.7545   11.5534   23.7084 C   0  0  0  0  0  0  0  0  0  0  0  0
  -24.1190   10.4494   24.5083 N   0  0  0  0  0  0  0  0  0  0  0  0
  -24.3101    9.1864   23.7576 C   0  0  0  0  0  0  0  0  0  0  0  0
  -24.7917    8.0955   24.7015 C   0  0  0  0  0  0  0  0  0  0  0  0
  -24.8366    6.9112   24.3674 O   0  0  0  0  0  0  0  0  0  0  0  0
  -25.2667    8.5557   26.0564 C   0  0  0  0  0  0  0  0  0  0  0  0
  -24.2376    9.4688   26.7276 C   0  0  0  0  0  0  0  0  0  0  0  0
  -23.3280   10.2687   25.7502 C   0  0  0  0  0  0  0  0  0  0  0  0
  -22.7795   11.4392   26.4531 N   0  0  0  0  0  0  0  0  0  0  0  0
  -21.9078   11.1309   27.6005 C   0  0  0  0  0  0  0  0  0  0  0  0
  -20.5697   10.4497   27.2311 C   0  0  0  0  0  0  0  0  0  0  0  0
  -19.9409   11.0045   26.0272 N   0  0  0  0  0  0  0  0  0  0  0  0
  -19.3784   12.3388   26.2643 C   0  0  0  0  0  0  0  0  0  0  0  0
  -18.6515   12.7559   25.0271 C   0  0  0  0  0  0  0  0  0  0  0  0
  -19.2150   12.9728   23.7819 C   0  0  0  0  0  0  0  0  0  0  0  0
  -18.2261   13.3368   22.9112 N   0  0  0  0  0  0  0  0  0  0  0  0
  -17.0144   13.3836   23.5634 C   0  0  0  0  0  0  0  0  0  0  0  0
  -15.7418   13.7135   23.0782 C   0  0  0  0  0  0  0  0  0  0  0  0
  -14.6703   13.6701   23.9767 C   0  0  0  0  0  0  0  0  0  0  0  0
  -14.8664   13.3076   25.3065 C   0  0  0  0  0  0  0  0  0  0  0  0
  -16.1454   12.9766   25.7744 C   0  0  0  0  0  0  0  0  0  0  0  0
  -17.2464   13.0179   24.8916 C   0  0  0  0  0  0  0  0  0  0  0  0
  1  2  1  0
  2  3  2  0
  3  4  1  0
  4  5  2  0
  5  6  1  0
  6  7  2  0
  7  8  1  0
  8  9  1  0
  9 10  1  0
 10 11  2  0
 10 12  1  0
 12 13  1  0
 13 14  1  0
 14 15  1  0
 15 16  1  0
 16 17  1  0
 17 18  1  0
 18 19  1  0
 19 20  1  0
 20 21  2  0
 21 22  1  0
 22 23  1  0
 23 24  2  0
 24 25  1  0
 25 26  2  0
 26 27  1  0
 27 28  2  0
  7  2  1  0
 14  8  1  0
 28 20  1  0
 28 23  1  0
M  END
$$$$
