
     RDKit          3D

 16 17  0  0  0  0  0  0  0  0999 V2000
  -19.5294   -4.5032   14.7666 N   0  0  0  0  0  0  0  0  0  0  0  0
  -18.9679   -5.5940   15.5517 C   0  0  0  0  0  0  0  0  0  0  0  0
  -20.0642   -6.2817   16.3622 C   0  0  0  0  0  0  0  0  0  0  0  0
  -19.4817   -7.3638   17.2623 C   0  0  0  0  0  0  0  0  0  0  0  0
  -20.5492   -8.2524   17.8704 C   0  0  0  0  0  0  0  0  0  0  0  0
  -20.5979   -9.4520   17.5834 O   0  0  0  0  0  0  0  0  0  0  0  0
  -21.5249   -7.6281   18.8512 C   0  0  0  0  0  0  0  0  0  0  0  0
  -22.8307   -7.2846   18.2132 C   0  0  0  0  0  0  0  0  0  0  0  0
  -23.6976   -8.1706   17.6011 C   0  0  0  0  0  0  0  0  0  0  0  0
  -24.7825   -7.4742   17.1465 N   0  0  0  0  0  0  0  0  0  0  0  0
  -24.6550   -6.1415   17.4578 C   0  0  0  0  0  0  0  0  0  0  0  0
  -25.5172   -5.0701   17.1950 C   0  0  0  0  0  0  0  0  0  0  0  0
  -25.1293   -3.8021   17.6358 C   0  0  0  0  0  0  0  0  0  0  0  0
  -23.9276   -3.6166   18.3135 C   0  0  0  0  0  0  0  0  0  0  0  0
  -23.0779   -4.6994   18.5691 C   0  0  0  0  0  0  0  0  0  0  0  0
  -23.4425   -5.9905   18.1325 C   0  0  0  0  0  0  0  0  0  0  0  0
  1  2  1  0
  2  3  1  0
  3  4  1  0
  4  5  1  0
  5  6  2  0
  5  7  1  0
  7  8  1  0
  8  9  2  0
  9 10  1  0
 10 11  1  0
 11 12  2  0
 12 13  1  0
 13 14  2  0
 14 15  1  0
 15 16  2  0
 16  8  1  0
 16 11  1  0
M  END
$$$$
