
     RDKit          3D

 31 34  0  0  0  0  0  0  0  0999 V2000
   -4.1503   -8.6996   17.5138 C   0  0  0  0  0  0  0  0  0  0  0  0
   -4.6476   -7.9900   16.3812 O   0  0  0  0  0  0  0  0  0  0  0  0
   -4.5699   -6.6233   16.4318 C   0  0  0  0  0  0  0  0  0  0  0  0
   -5.2082   -5.9623   15.3899 C   0  0  0  0  0  0  0  0  0  0  0  0
   -5.2019   -4.5684   15.3343 C   0  0  0  0  0  0  0  0  0  0  0  0
   -4.5480   -3.7978   16.3188 C   0  0  0  0  0  0  0  0  0  0  0  0
   -4.5533   -2.2993   16.1353 C   0  0  0  0  0  0  0  0  0  0  0  0
   -5.7362   -1.6765   16.7281 N   0  0  0  0  0  0  0  0  0  0  0  0
   -3.9062   -4.4557   17.3885 C   0  0  0  0  0  0  0  0  0  0  0  0
   -3.2585   -3.8087   18.4428 N   0  0  0  0  0  0  0  0  0  0  0  0
   -4.0070   -2.8255   19.2323 C   0  0  0  0  0  0  0  0  0  0  0  0
   -3.5634   -2.9167   20.6867 C   0  0  0  0  0  0  0  0  0  0  0  0
   -4.2302   -2.4585   21.6149 O   0  0  0  0  0  0  0  0  0  0  0  0
   -2.2308   -3.5881   20.9383 C   0  0  0  0  0  0  0  0  0  0  0  0
   -1.2876   -3.2363   19.7933 C   0  0  0  0  0  0  0  0  0  0  0  0
   -1.7937   -3.7836   18.4310 C   0  0  0  0  0  0  0  0  0  0  0  0
   -1.1448   -3.0661   17.3316 N   0  0  0  0  0  0  0  0  0  0  0  0
    0.2913   -3.2849   17.1811 C   0  0  0  0  0  0  0  0  0  0  0  0
    0.6642   -4.7088   16.6959 C   0  0  0  0  0  0  0  0  0  0  0  0
    2.0826   -4.8645   16.3408 N   0  0  0  0  0  0  0  0  0  0  0  0
    2.9585   -4.8588   17.5219 C   0  0  0  0  0  0  0  0  0  0  0  0
    4.3173   -5.4059   17.2150 C   0  0  0  0  0  0  0  0  0  0  0  0
    5.0086   -6.2541   17.9561 N   0  0  0  0  0  0  0  0  0  0  0  0
    6.1862   -6.4650   17.2785 C   0  0  0  0  0  0  0  0  0  0  0  0
    7.2728   -7.2911   17.6012 C   0  0  0  0  0  0  0  0  0  0  0  0
    8.3704   -7.3265   16.7288 C   0  0  0  0  0  0  0  0  0  0  0  0
    8.3878   -6.5488   15.5660 C   0  0  0  0  0  0  0  0  0  0  0  0
    7.3125   -5.7186   15.2272 C   0  0  0  0  0  0  0  0  0  0  0  0
    6.2298   -5.7097   16.1099 C   0  0  0  0  0  0  0  0  0  0  0  0
    5.0291   -5.0499   16.0888 N   0  0  0  0  0  0  0  0  0  0  0  0
   -3.9232   -5.8702   17.4139 C   0  0  0  0  0  0  0  0  0  0  0  0
  1  2  1  0
  2  3  1  0
  3  4  2  0
  4  5  1  0
  5  6  2  0
  6  7  1  0
  7  8  1  0
  6  9  1  0
  9 10  1  0
 10 11  1  0
 11 12  1  0
 12 13  2  0
 12 14  1  0
 14 15  1  0
 15 16  1  0
 16 17  1  0
 17 18  1  0
 18 19  1  0
 19 20  1  0
 20 21  1  0
 21 22  1  0
 22 23  2  0
 23 24  1  0
 24 25  2  0
 25 26  1  0
 26 27  2  0
 27 28  1  0
 28 29  2  0
 29 30  1  0
  9 31  2  0
 31  3  1  0
 16 10  1  0
 30 22  1  0
 29 24  1  0
M  END
$$$$
