
     RDKit          3D

 19 20  0  0  0  0  0  0  0  0999 V2000
    1.0586    2.6029    0.0454 N   0  0  0  0  0  0  0  0  0  0  0  0
    0.4193    3.9177    0.0337 C   0  0  0  0  0  0  0  0  0  0  0  0
   -0.2307    4.2647    1.3659 C   0  0  0  0  0  0  0  0  0  0  0  0
   -1.5599    3.5634    1.5587 C   0  0  0  0  0  0  0  0  0  0  0  0
   -1.7179    2.7464    2.4692 O   0  0  0  0  0  0  0  0  0  0  0  0
   -2.6732    3.8926    0.5785 C   0  0  0  0  0  0  0  0  0  0  0  0
   -4.0506    3.6981    1.1979 C   0  0  0  0  0  0  0  0  0  0  0  0
   -4.3203    4.6945    2.3118 C   0  0  0  0  0  0  0  0  0  0  0  0
   -3.5868    5.6677    2.4999 O   0  0  0  0  0  0  0  0  0  0  0  0
   -5.5542    4.4497    3.1603 C   0  0  0  0  0  0  0  0  0  0  0  0
   -6.8045    4.7333    2.3986 C   0  0  0  0  0  0  0  0  0  0  0  0
   -7.3440    5.9804    2.1570 C   0  0  0  0  0  0  0  0  0  0  0  0
   -8.4837    5.8212    1.4175 N   0  0  0  0  0  0  0  0  0  0  0  0
   -8.6971    4.4927    1.1542 C   0  0  0  0  0  0  0  0  0  0  0  0
   -9.7224    3.8741    0.4290 C   0  0  0  0  0  0  0  0  0  0  0  0
   -9.6879    2.4785    0.3141 C   0  0  0  0  0  0  0  0  0  0  0  0
   -8.6678    1.7382    0.9030 C   0  0  0  0  0  0  0  0  0  0  0  0
   -7.6532    2.3728    1.6300 C   0  0  0  0  0  0  0  0  0  0  0  0
   -7.6636    3.7802    1.7603 C   0  0  0  0  0  0  0  0  0  0  0  0
  1  2  1  0
  2  3  1  0
  3  4  1  0
  4  5  2  0
  4  6  1  0
  6  7  1  0
  7  8  1  0
  8  9  2  0
  8 10  1  0
 10 11  1  0
 11 12  2  0
 12 13  1  0
 13 14  1  0
 14 15  2  0
 15 16  1  0
 16 17  2  0
 17 18  1  0
 18 19  2  0
 19 11  1  0
 19 14  1  0
M  END
$$$$
