
     RDKit          3D

 19 20  0  0  0  0  0  0  0  0999 V2000
    3.1474   55.8279   -4.6822 C   0  0  0  0  0  0  0  0  0  0  0  0
    2.8906   54.9153   -5.7629 N   0  0  0  0  0  0  0  0  0  0  0  0
    3.9327   54.3253   -6.4464 C   0  0  0  0  0  0  0  0  0  0  0  0
    5.1112   54.6372   -6.2996 O   0  0  0  0  0  0  0  0  0  0  0  0
    3.4815   53.2546   -7.4190 C   0  0  0  0  0  0  0  0  0  0  0  0
    3.3245   51.8976   -6.7689 C   0  0  0  0  0  0  0  0  0  0  0  0
    4.3701   50.9681   -6.9154 C   0  0  0  0  0  0  0  0  0  0  0  0
    4.2852   49.6918   -6.3574 C   0  0  0  0  0  0  0  0  0  0  0  0
    3.1484   49.3222   -5.6488 C   0  0  0  0  0  0  0  0  0  0  0  0
    2.9212   48.1025   -5.0708 O   0  0  0  0  0  0  0  0  0  0  0  0
    3.9587   47.1363   -5.1831 C   0  0  0  0  0  0  0  0  0  0  0  0
    2.1109   50.2478   -5.4871 C   0  0  0  0  0  0  0  0  0  0  0  0
    2.1838   51.5516   -6.0107 C   0  0  0  0  0  0  0  0  0  0  0  0
    1.1367   52.4923   -5.8413 N   0  0  0  0  0  0  0  0  0  0  0  0
    0.0975   52.3094   -6.8690 C   0  0  0  0  0  0  0  0  0  0  0  0
   -0.7361   53.5909   -6.9544 C   0  0  0  0  0  0  0  0  0  0  0  0
   -0.9515   54.2622   -5.5947 C   0  0  0  0  0  0  0  0  0  0  0  0
   -0.7787   53.2767   -4.4466 C   0  0  0  0  0  0  0  0  0  0  0  0
    0.5959   52.5934   -4.4631 C   0  0  0  0  0  0  0  0  0  0  0  0
  1  2  1  0
  2  3  1  0
  3  4  2  0
  3  5  1  0
  5  6  1  0
  6  7  2  0
  7  8  1  0
  8  9  2  0
  9 10  1  0
 10 11  1  0
  9 12  1  0
 12 13  2  0
 13 14  1  0
 14 15  1  0
 15 16  1  0
 16 17  1  0
 17 18  1  0
 18 19  1  0
 13  6  1  0
 19 14  1  0
M  END
$$$$
