
     RDKit          3D

 26 29  0  0  0  0  0  0  0  0999 V2000
    2.2823    0.3380  -17.6080 N   0  0  0  0  0  0  0  0  0  0  0  0
    2.1015    0.3207  -16.1595 C   0  0  0  0  0  0  0  0  0  0  0  0
    3.0651    1.2455  -15.4586 C   0  0  0  0  0  0  0  0  0  0  0  0
    2.7266    2.6147  -15.4305 C   0  0  0  0  0  0  0  0  0  0  0  0
    3.5420    3.5145  -14.7647 C   0  0  0  0  0  0  0  0  0  0  0  0
    4.6648    3.1585  -14.1214 N   0  0  0  0  0  0  0  0  0  0  0  0
    4.9836    1.8440  -14.1718 C   0  0  0  0  0  0  0  0  0  0  0  0
    4.2520    0.8363  -14.8240 C   0  0  0  0  0  0  0  0  0  0  0  0
    4.7421   -0.4739  -14.7568 N   0  0  0  0  0  0  0  0  0  0  0  0
    4.1548   -1.2935  -13.6799 C   0  0  0  0  0  0  0  0  0  0  0  0
    3.3870   -2.4953  -14.2029 C   0  0  0  0  0  0  0  0  0  0  0  0
    2.3404   -2.8772  -13.6744 O   0  0  0  0  0  0  0  0  0  0  0  0
    3.9753   -3.2472  -15.3733 C   0  0  0  0  0  0  0  0  0  0  0  0
    5.2970   -2.6387  -15.8167 C   0  0  0  0  0  0  0  0  0  0  0  0
    5.1429   -1.1239  -16.0352 C   0  0  0  0  0  0  0  0  0  0  0  0
    6.4691   -0.5241  -16.5770 C   0  0  0  0  0  0  0  0  0  0  0  0
    7.5115   -0.5681  -15.5472 N   0  0  0  0  0  0  0  0  0  0  0  0
    8.7625   -0.2366  -15.9185 C   0  0  0  0  0  0  0  0  0  0  0  0
    9.2737   -0.1744  -17.1245 N   0  0  0  0  0  0  0  0  0  0  0  0
   10.5826    0.2045  -16.9510 C   0  0  0  0  0  0  0  0  0  0  0  0
   11.5877    0.4266  -17.9033 C   0  0  0  0  0  0  0  0  0  0  0  0
   12.8600    0.8109  -17.4601 C   0  0  0  0  0  0  0  0  0  0  0  0
   13.1257    0.9701  -16.0972 C   0  0  0  0  0  0  0  0  0  0  0  0
   12.1355    0.7525  -15.1316 C   0  0  0  0  0  0  0  0  0  0  0  0
   10.8776    0.3715  -15.6027 C   0  0  0  0  0  0  0  0  0  0  0  0
    9.6980    0.0790  -14.9691 N   0  0  0  0  0  0  0  0  0  0  0  0
  1  2  1  0
  2  3  1  0
  3  4  2  0
  4  5  1  0
  5  6  2  0
  6  7  1  0
  7  8  2  0
  8  9  1  0
  9 10  1  0
 10 11  1  0
 11 12  2  0
 11 13  1  0
 13 14  1  0
 14 15  1  0
 15 16  1  0
 16 17  1  0
 17 18  1  0
 18 19  2  0
 19 20  1  0
 20 21  2  0
 21 22  1  0
 22 23  2  0
 23 24  1  0
 24 25  2  0
 25 26  1  0
  8  3  1  0
 15  9  1  0
 26 18  1  0
 25 20  1  0
M  END
$$$$
