
     RDKit          3D

 23 25  0  0  0  0  0  0  0  0999 V2000
   63.1745   29.3920 -100.7752 N   0  0  0  0  0  0  0  0  0  0  0  0
   63.5978   28.6717  -99.6898 C   0  0  0  0  0  0  0  0  0  0  0  0
   64.1003   27.5610  -99.8260 O   0  0  0  0  0  0  0  0  0  0  0  0
   63.3654   29.2538  -98.3321 C   0  0  0  0  0  0  0  0  0  0  0  0
   63.2512   28.3118  -97.2856 C   0  0  0  0  0  0  0  0  0  0  0  0
   63.0190   28.7220  -95.9744 C   0  0  0  0  0  0  0  0  0  0  0  0
   62.9027   30.0769  -95.7049 C   0  0  0  0  0  0  0  0  0  0  0  0
   62.6908   30.4834  -94.4460 F   0  0  0  0  0  0  0  0  0  0  0  0
   63.0272   31.0286  -96.7167 C   0  0  0  0  0  0  0  0  0  0  0  0
   63.2675   30.6432  -98.0534 C   0  0  0  0  0  0  0  0  0  0  0  0
   63.4376   31.6260  -99.0695 N   0  0  0  0  0  0  0  0  0  0  0  0
   62.2179   32.4830  -99.1572 C   0  0  0  0  0  0  0  0  0  0  0  0
   62.3198   33.4713 -100.3060 C   0  0  0  0  0  0  0  0  0  0  0  0
   61.3510   33.7405 -101.0177 O   0  0  0  0  0  0  0  0  0  0  0  0
   63.6191   34.2304 -100.4123 C   0  0  0  0  0  0  0  0  0  0  0  0
   64.7937   33.2741 -100.2642 C   0  0  0  0  0  0  0  0  0  0  0  0
   64.7050   32.4156  -98.9634 C   0  0  0  0  0  0  0  0  0  0  0  0
   66.0549   31.8521  -98.7582 N   0  0  0  0  0  0  0  0  0  0  0  0
   66.4761   30.8343  -99.7275 C   0  0  0  0  0  0  0  0  0  0  0  0
   67.9824   30.5609  -99.6065 C   0  0  0  0  0  0  0  0  0  0  0  0
   68.3844   30.1924  -98.1822 C   0  0  0  0  0  0  0  0  0  0  0  0
   67.8288   31.2055  -97.1845 C   0  0  0  0  0  0  0  0  0  0  0  0
   66.3256   31.4077  -97.3903 C   0  0  0  0  0  0  0  0  0  0  0  0
  1  2  1  0
  2  3  2  0
  2  4  1  0
  4  5  2  0
  5  6  1  0
  6  7  2  0
  7  8  1  0
  7  9  1  0
  9 10  2  0
 10 11  1  0
 11 12  1  0
 12 13  1  0
 13 14  2  0
 13 15  1  0
 15 16  1  0
 16 17  1  0
 17 18  1  0
 18 19  1  0
 19 20  1  0
 20 21  1  0
 21 22  1  0
 22 23  1  0
 10  4  1  0
 17 11  1  0
 23 18  1  0
M  END
$$$$
