
     RDKit          3D

 23 25  0  0  0  0  0  0  0  0999 V2000
    2.5383   -1.9822  -16.7124 N   0  0  0  0  0  0  0  0  0  0  0  0
    2.9616   -2.7024  -15.6270 C   0  0  0  0  0  0  0  0  0  0  0  0
    3.4641   -3.8132  -15.7633 O   0  0  0  0  0  0  0  0  0  0  0  0
    2.7292   -2.1204  -14.2694 C   0  0  0  0  0  0  0  0  0  0  0  0
    2.6151   -3.0623  -13.2228 C   0  0  0  0  0  0  0  0  0  0  0  0
    2.3828   -2.6521  -11.9116 C   0  0  0  0  0  0  0  0  0  0  0  0
    2.2665   -1.2972  -11.6421 C   0  0  0  0  0  0  0  0  0  0  0  0
    2.0546   -0.8907  -10.3833 F   0  0  0  0  0  0  0  0  0  0  0  0
    2.3910   -0.3455  -12.6539 C   0  0  0  0  0  0  0  0  0  0  0  0
    2.6313   -0.7310  -13.9906 C   0  0  0  0  0  0  0  0  0  0  0  0
    2.8014    0.2519  -15.0067 N   0  0  0  0  0  0  0  0  0  0  0  0
    1.5817    1.1089  -15.0945 C   0  0  0  0  0  0  0  0  0  0  0  0
    1.6836    2.0972  -16.2433 C   0  0  0  0  0  0  0  0  0  0  0  0
    0.7148    2.3664  -16.9549 O   0  0  0  0  0  0  0  0  0  0  0  0
    2.9829    2.8563  -16.3496 C   0  0  0  0  0  0  0  0  0  0  0  0
    4.1575    1.8999  -16.2014 C   0  0  0  0  0  0  0  0  0  0  0  0
    4.0689    1.0415  -14.9007 C   0  0  0  0  0  0  0  0  0  0  0  0
    5.4187    0.4780  -14.6955 N   0  0  0  0  0  0  0  0  0  0  0  0
    5.8399   -0.5398  -15.6647 C   0  0  0  0  0  0  0  0  0  0  0  0
    7.3462   -0.8133  -15.5437 C   0  0  0  0  0  0  0  0  0  0  0  0
    7.7482   -1.1817  -14.1195 C   0  0  0  0  0  0  0  0  0  0  0  0
    7.1926   -0.1687  -13.1217 C   0  0  0  0  0  0  0  0  0  0  0  0
    5.6894    0.0336  -13.3275 C   0  0  0  0  0  0  0  0  0  0  0  0
  1  2  1  0
  2  3  2  0
  2  4  1  0
  4  5  2  0
  5  6  1  0
  6  7  2  0
  7  8  1  0
  7  9  1  0
  9 10  2  0
 10 11  1  0
 11 12  1  0
 12 13  1  0
 13 14  2  0
 13 15  1  0
 15 16  1  0
 16 17  1  0
 17 18  1  0
 18 19  1  0
 19 20  1  0
 20 21  1  0
 21 22  1  0
 22 23  1  0
 10  4  1  0
 17 11  1  0
 23 18  1  0
M  END
$$$$
