
     RDKit          3D

 29 32  0  0  0  0  0  0  0  0999 V2000
    1.2446    8.5292   -5.2772 N   0  0  0  0  0  0  0  0  0  0  0  0
    0.9437    8.4467   -6.7083 C   0  0  0  0  0  0  0  0  0  0  0  0
    0.9585    9.8107   -7.3665 C   0  0  0  0  0  0  0  0  0  0  0  0
   -0.1059   10.6913   -7.0667 C   0  0  0  0  0  0  0  0  0  0  0  0
   -0.1985   11.9440   -7.6666 C   0  0  0  0  0  0  0  0  0  0  0  0
    0.7779   12.3246   -8.5789 C   0  0  0  0  0  0  0  0  0  0  0  0
    0.6887   13.9026   -9.3757 S   0  0  0  0  0  0  0  0  0  0  0  0
    1.8821   14.7663   -8.5610 N   0  0  0  0  0  0  0  0  0  0  0  0
   -0.5582   14.5348   -9.0095 O   0  0  0  0  0  0  0  0  0  0  0  0
    1.1069   13.7422  -10.7472 O   0  0  0  0  0  0  0  0  0  0  0  0
    1.8329   11.4647   -8.9003 C   0  0  0  0  0  0  0  0  0  0  0  0
    1.9525   10.1998   -8.2958 C   0  0  0  0  0  0  0  0  0  0  0  0
    3.0299    9.3650   -8.6082 N   0  0  0  0  0  0  0  0  0  0  0  0
    3.4557    9.3098  -10.0119 C   0  0  0  0  0  0  0  0  0  0  0  0
    4.0380    7.9253  -10.3031 C   0  0  0  0  0  0  0  0  0  0  0  0
    4.8791    7.3740   -9.1512 C   0  0  0  0  0  0  0  0  0  0  0  0
    5.3314    8.4842   -8.2111 C   0  0  0  0  0  0  0  0  0  0  0  0
    4.1264    9.2347   -7.5958 C   0  0  0  0  0  0  0  0  0  0  0  0
    4.5724   10.5901   -6.9795 C   0  0  0  0  0  0  0  0  0  0  0  0
    5.5135   10.4235   -5.8718 N   0  0  0  0  0  0  0  0  0  0  0  0
    6.8279   10.6142   -6.0843 C   0  0  0  0  0  0  0  0  0  0  0  0
    7.4310   11.0523   -7.1626 N   0  0  0  0  0  0  0  0  0  0  0  0
    8.7715   11.0510   -6.8636 C   0  0  0  0  0  0  0  0  0  0  0  0
    9.8690   11.4207   -7.6539 C   0  0  0  0  0  0  0  0  0  0  0  0
   11.1541   11.3255   -7.1044 C   0  0  0  0  0  0  0  0  0  0  0  0
   11.3418   10.8722   -5.7958 C   0  0  0  0  0  0  0  0  0  0  0  0
   10.2583   10.4988   -4.9915 C   0  0  0  0  0  0  0  0  0  0  0  0
    8.9902   10.6031   -5.5660 C   0  0  0  0  0  0  0  0  0  0  0  0
    7.7318   10.3351   -5.0934 N   0  0  0  0  0  0  0  0  0  0  0  0
  1  2  1  0
  2  3  1  0
  3  4  2  0
  4  5  1  0
  5  6  2  0
  6  7  1  0
  7  8  1  0
  7  9  2  0
  7 10  2  0
  6 11  1  0
 11 12  2  0
 12 13  1  0
 13 14  1  0
 14 15  1  0
 15 16  1  0
 16 17  1  0
 17 18  1  0
 18 19  1  0
 19 20  1  0
 20 21  1  0
 21 22  2  0
 22 23  1  0
 23 24  2  0
 24 25  1  0
 25 26  2  0
 26 27  1  0
 27 28  2  0
 28 29  1  0
 12  3  1  0
 18 13  1  0
 29 21  1  0
 28 23  1  0
M  END
$$$$
