
     RDKit          3D

 23 25  0  0  0  0  0  0  0  0999 V2000
  -11.4830   -0.2253   -7.8672 N   0  0  0  0  0  0  0  0  0  0  0  0
  -10.2371   -0.7706   -7.7077 C   0  0  0  0  0  0  0  0  0  0  0  0
   -9.2988   -0.4081   -8.4085 O   0  0  0  0  0  0  0  0  0  0  0  0
  -10.0860   -1.8417   -6.6801 C   0  0  0  0  0  0  0  0  0  0  0  0
  -10.8779   -1.7855   -5.5187 C   0  0  0  0  0  0  0  0  0  0  0  0
  -10.7544   -2.7666   -4.5370 C   0  0  0  0  0  0  0  0  0  0  0  0
   -9.8460   -3.8033   -4.7174 C   0  0  0  0  0  0  0  0  0  0  0  0
   -9.7125   -5.0319   -3.5189 Cl  0  0  0  0  0  0  0  0  0  0  0  0
   -9.0456   -3.8603   -5.8614 C   0  0  0  0  0  0  0  0  0  0  0  0
   -9.1189   -2.8658   -6.8513 C   0  0  0  0  0  0  0  0  0  0  0  0
   -8.3672   -2.9566   -8.0381 N   0  0  0  0  0  0  0  0  0  0  0  0
   -7.0180   -3.5336   -8.0231 C   0  0  0  0  0  0  0  0  0  0  0  0
   -6.0053   -2.6728   -7.2421 C   0  0  0  0  0  0  0  0  0  0  0  0
   -4.6574   -3.2143   -7.3959 N   0  0  0  0  0  0  0  0  0  0  0  0
   -3.6678   -2.5172   -6.6893 C   0  0  0  0  0  0  0  0  0  0  0  0
   -3.9367   -1.9394   -5.4880 N   0  0  0  0  0  0  0  0  0  0  0  0
   -2.9422   -1.2973   -4.8351 C   0  0  0  0  0  0  0  0  0  0  0  0
   -1.6601   -1.1279   -5.2182 N   0  0  0  0  0  0  0  0  0  0  0  0
   -1.4474   -1.7085   -6.4067 C   0  0  0  0  0  0  0  0  0  0  0  0
   -0.2776   -1.7413   -7.1077 N   0  0  0  0  0  0  0  0  0  0  0  0
   -0.5108   -2.4281   -8.2688 C   0  0  0  0  0  0  0  0  0  0  0  0
   -1.7590   -2.8388   -8.3558 N   0  0  0  0  0  0  0  0  0  0  0  0
   -2.3555   -2.3999   -7.1882 C   0  0  0  0  0  0  0  0  0  0  0  0
  1  2  1  0
  2  3  2  0
  2  4  1  0
  4  5  2  0
  5  6  1  0
  6  7  2  0
  7  8  1  0
  7  9  1  0
  9 10  2  0
 10 11  1  0
 11 12  1  0
 12 13  1  0
 13 14  1  0
 14 15  1  0
 15 16  2  0
 16 17  1  0
 17 18  2  0
 18 19  1  0
 19 20  1  0
 20 21  1  0
 21 22  2  0
 22 23  1  0
 10  4  1  0
 23 15  1  0
 23 19  2  0
M  END
$$$$
