
     RDKit          3D

 31 34  0  0  0  0  0  0  0  0999 V2000
   -9.5376   -2.3153   -5.0012 N   0  0  0  0  0  0  0  0  0  0  0  0
   -9.7946   -3.3659   -4.0984 C   0  0  0  0  0  0  0  0  0  0  0  0
   -9.6630   -4.6787   -4.5648 C   0  0  0  0  0  0  0  0  0  0  0  0
   -9.7844   -5.7312   -3.6728 C   0  0  0  0  0  0  0  0  0  0  0  0
   -9.9900   -5.5704   -2.3541 N   0  0  0  0  0  0  0  0  0  0  0  0
  -10.0373   -4.2939   -1.9103 C   0  0  0  0  0  0  0  0  0  0  0  0
   -9.9551   -3.1494   -2.7126 C   0  0  0  0  0  0  0  0  0  0  0  0
  -10.0255   -1.8801   -2.0921 N   0  0  0  0  0  0  0  0  0  0  0  0
   -8.6885   -1.2456   -2.0307 C   0  0  0  0  0  0  0  0  0  0  0  0
   -8.7386    0.0719   -1.2737 C   0  0  0  0  0  0  0  0  0  0  0  0
   -7.8185    0.4457   -0.5446 O   0  0  0  0  0  0  0  0  0  0  0  0
   -9.9429    0.9518   -1.5035 C   0  0  0  0  0  0  0  0  0  0  0  0
  -10.7821    0.4213   -2.6572 C   0  0  0  0  0  0  0  0  0  0  0  0
  -11.1998   -1.0528   -2.4562 C   0  0  0  0  0  0  0  0  0  0  0  0
  -12.2827   -1.1392   -1.3580 C   0  0  0  0  0  0  0  0  0  0  0  0
  -13.0003   -2.4824   -1.2120 C   0  0  0  0  0  0  0  0  0  0  0  0
  -13.4348   -3.1121   -2.4406 N   0  0  0  0  0  0  0  0  0  0  0  0
  -14.2731   -2.5163   -3.3599 C   0  0  0  0  0  0  0  0  0  0  0  0
  -14.6182   -1.3432   -3.3306 O   0  0  0  0  0  0  0  0  0  0  0  0
  -14.6314   -3.4001   -4.4943 C   0  0  0  0  0  0  0  0  0  0  0  0
  -13.5709   -3.7260   -5.3520 C   0  0  0  0  0  0  0  0  0  0  0  0
  -13.8026   -4.6337   -6.3617 C   0  0  0  0  0  0  0  0  0  0  0  0
  -14.9930   -5.2236   -6.5571 N   0  0  0  0  0  0  0  0  0  0  0  0
  -16.0003   -4.8723   -5.7125 C   0  0  0  0  0  0  0  0  0  0  0  0
  -15.9146   -3.9565   -4.6566 C   0  0  0  0  0  0  0  0  0  0  0  0
  -17.0090   -3.6471   -3.8410 N   0  0  0  0  0  0  0  0  0  0  0  0
  -18.0788   -4.6376   -3.6661 C   0  0  0  0  0  0  0  0  0  0  0  0
  -19.0820   -4.1361   -2.6309 C   0  0  0  0  0  0  0  0  0  0  0  0
  -19.7555   -2.8439   -3.0932 C   0  0  0  0  0  0  0  0  0  0  0  0
  -18.8935   -2.0470   -4.0721 C   0  0  0  0  0  0  0  0  0  0  0  0
  -17.3986   -2.2212   -3.8021 C   0  0  0  0  0  0  0  0  0  0  0  0
  1  2  1  0
  2  3  2  0
  3  4  1  0
  4  5  2  0
  5  6  1  0
  6  7  2  0
  7  8  1  0
  8  9  1  0
  9 10  1  0
 10 11  2  0
 10 12  1  0
 12 13  1  0
 13 14  1  0
 14 15  1  0
 15 16  1  0
 16 17  1  0
 17 18  1  0
 18 19  2  0
 18 20  1  0
 20 21  2  0
 21 22  1  0
 22 23  2  0
 23 24  1  0
 24 25  2  0
 25 26  1  0
 26 27  1  0
 27 28  1  0
 28 29  1  0
 29 30  1  0
 30 31  1  0
  7  2  1  0
 14  8  1  0
 25 20  1  0
 31 26  1  0
M  END
$$$$
