
     RDKit          3D

 18 19  0  0  0  0  0  0  0  0999 V2000
    1.1758   27.6807  -12.4521 N   0  0  0  0  0  0  0  0  0  0  0  0
    0.3551   26.6385  -13.0583 C   0  0  0  0  0  0  0  0  0  0  0  0
    0.4578   25.3470  -12.2453 C   0  0  0  0  0  0  0  0  0  0  0  0
   -0.2890   24.1838  -12.8970 C   0  0  0  0  0  0  0  0  0  0  0  0
   -1.8039   24.2963  -12.8253 C   0  0  0  0  0  0  0  0  0  0  0  0
   -2.3726   25.2055  -12.2224 O   0  0  0  0  0  0  0  0  0  0  0  0
   -2.5790   23.1980  -13.5406 C   0  0  0  0  0  0  0  0  0  0  0  0
   -4.0925   23.3649  -13.4225 C   0  0  0  0  0  0  0  0  0  0  0  0
   -4.6210   24.5054  -14.2975 C   0  0  0  0  0  0  0  0  0  0  0  0
   -6.0494   24.7939  -13.9944 C   0  0  0  0  0  0  0  0  0  0  0  0
   -7.1042   24.3168  -14.6214 N   0  0  0  0  0  0  0  0  0  0  0  0
   -8.1900   24.8627  -13.9800 C   0  0  0  0  0  0  0  0  0  0  0  0
   -9.5592   24.6956  -14.2325 C   0  0  0  0  0  0  0  0  0  0  0  0
  -10.4798   25.3717  -13.4212 C   0  0  0  0  0  0  0  0  0  0  0  0
  -10.0455   26.1966  -12.3802 C   0  0  0  0  0  0  0  0  0  0  0  0
   -8.6829   26.3757  -12.1130 C   0  0  0  0  0  0  0  0  0  0  0  0
   -7.7882   25.6904  -12.9375 C   0  0  0  0  0  0  0  0  0  0  0  0
   -6.4194   25.6299  -12.9683 N   0  0  0  0  0  0  0  0  0  0  0  0
  1  2  1  0
  2  3  1  0
  3  4  1  0
  4  5  1  0
  5  6  2  0
  5  7  1  0
  7  8  1  0
  8  9  1  0
  9 10  1  0
 10 11  2  0
 11 12  1  0
 12 13  2  0
 13 14  1  0
 14 15  2  0
 15 16  1  0
 16 17  2  0
 17 18  1  0
 18 10  1  0
 17 12  1  0
M  END
$$$$
