
     RDKit          3D

 31 34  0  0  0  0  0  0  0  0999 V2000
    2.4287   21.9326  -16.9993 N   0  0  0  0  0  0  0  0  0  0  0  0
    2.7780   23.2925  -17.4134 C   0  0  0  0  0  0  0  0  0  0  0  0
    2.0743   24.3383  -16.5442 C   0  0  0  0  0  0  0  0  0  0  0  0
    2.3190   25.7527  -17.0395 C   0  0  0  0  0  0  0  0  0  0  0  0
    1.3358   26.3377  -17.8642 C   0  0  0  0  0  0  0  0  0  0  0  0
    1.4997   27.6222  -18.3746 C   0  0  0  0  0  0  0  0  0  0  0  0
    2.6574   28.3271  -18.0636 C   0  0  0  0  0  0  0  0  0  0  0  0
    2.8847   29.9741  -18.6723 S   0  0  0  0  0  0  0  0  0  0  0  0
    3.8631   29.7054  -20.0159 N   0  0  0  0  0  0  0  0  0  0  0  0
    1.6260   30.4494  -19.1991 O   0  0  0  0  0  0  0  0  0  0  0  0
    3.6525   30.7181  -17.7028 O   0  0  0  0  0  0  0  0  0  0  0  0
    3.6426   27.7675  -17.2429 C   0  0  0  0  0  0  0  0  0  0  0  0
    3.5017   26.4690  -16.7297 C   0  0  0  0  0  0  0  0  0  0  0  0
    4.4813   25.8939  -15.8992 N   0  0  0  0  0  0  0  0  0  0  0  0
    4.1510   26.0397  -14.4633 C   0  0  0  0  0  0  0  0  0  0  0  0
    5.1113   27.0003  -13.7714 C   0  0  0  0  0  0  0  0  0  0  0  0
    6.5533   26.5043  -13.8549 C   0  0  0  0  0  0  0  0  0  0  0  0
    6.8095   25.6472  -15.0955 C   0  0  0  0  0  0  0  0  0  0  0  0
    5.9137   26.0759  -16.2713 C   0  0  0  0  0  0  0  0  0  0  0  0
    6.2436   25.2331  -17.5381 C   0  0  0  0  0  0  0  0  0  0  0  0
    7.6087   25.3827  -18.0773 N   0  0  0  0  0  0  0  0  0  0  0  0
    7.7950   26.6932  -18.7145 C   0  0  0  0  0  0  0  0  0  0  0  0
    9.1208   26.7512  -19.3983 C   0  0  0  0  0  0  0  0  0  0  0  0
    9.3558   27.0647  -20.6568 N   0  0  0  0  0  0  0  0  0  0  0  0
   10.7189   26.9744  -20.8093 C   0  0  0  0  0  0  0  0  0  0  0  0
   11.5121   27.2034  -21.9427 C   0  0  0  0  0  0  0  0  0  0  0  0
   12.8990   27.0354  -21.8373 C   0  0  0  0  0  0  0  0  0  0  0  0
   13.4831   26.6467  -20.6289 C   0  0  0  0  0  0  0  0  0  0  0  0
   12.7075   26.4137  -19.4869 C   0  0  0  0  0  0  0  0  0  0  0  0
   11.3290   26.5910  -19.6201 C   0  0  0  0  0  0  0  0  0  0  0  0
   10.2895   26.4546  -18.7389 N   0  0  0  0  0  0  0  0  0  0  0  0
  1  2  1  0
  2  3  1  0
  3  4  1  0
  4  5  2  0
  5  6  1  0
  6  7  2  0
  7  8  1  0
  8  9  1  0
  8 10  2  0
  8 11  2  0
  7 12  1  0
 12 13  2  0
 13 14  1  0
 14 15  1  0
 15 16  1  0
 16 17  1  0
 17 18  1  0
 18 19  1  0
 19 20  1  0
 20 21  1  0
 21 22  1  0
 22 23  1  0
 23 24  2  0
 24 25  1  0
 25 26  2  0
 26 27  1  0
 27 28  2  0
 28 29  1  0
 29 30  2  0
 30 31  1  0
 13  4  1  0
 19 14  1  0
 31 23  1  0
 30 25  1  0
M  END
$$$$
