
     RDKit          3D

 26 29  0  0  0  0  0  0  0  0999 V2000
   -1.1221  -24.7669    0.9752 N   0  0  0  0  0  0  0  0  0  0  0  0
   -1.0213  -26.1768    1.0073 C   0  0  0  0  0  0  0  0  0  0  0  0
   -1.9239  -26.9176    1.7678 C   0  0  0  0  0  0  0  0  0  0  0  0
   -1.8639  -28.2990    1.7038 C   0  0  0  0  0  0  0  0  0  0  0  0
   -1.0031  -28.9784    0.9194 N   0  0  0  0  0  0  0  0  0  0  0  0
   -0.1795  -28.2349    0.1426 C   0  0  0  0  0  0  0  0  0  0  0  0
   -0.1363  -26.8387    0.1269 C   0  0  0  0  0  0  0  0  0  0  0  0
    0.7029  -26.0746   -0.7134 N   0  0  0  0  0  0  0  0  0  0  0  0
    0.0032  -25.6396   -1.9453 C   0  0  0  0  0  0  0  0  0  0  0  0
    0.2961  -26.5587   -3.1214 C   0  0  0  0  0  0  0  0  0  0  0  0
   -0.5348  -26.7873   -4.0015 O   0  0  0  0  0  0  0  0  0  0  0  0
    1.6824  -27.1542   -3.1947 C   0  0  0  0  0  0  0  0  0  0  0  0
    2.6253  -26.4085   -2.2616 C   0  0  0  0  0  0  0  0  0  0  0  0
    2.1239  -26.4854   -0.8101 C   0  0  0  0  0  0  0  0  0  0  0  0
    2.9628  -25.5670    0.1259 C   0  0  0  0  0  0  0  0  0  0  0  0
    4.4156  -25.8083    0.1321 N   0  0  0  0  0  0  0  0  0  0  0  0
    4.7529  -27.0540    0.8386 C   0  0  0  0  0  0  0  0  0  0  0  0
    6.2354  -27.2183    0.9189 C   0  0  0  0  0  0  0  0  0  0  0  0
    6.9502  -27.4913    1.9920 N   0  0  0  0  0  0  0  0  0  0  0  0
    8.2545  -27.5451    1.5623 C   0  0  0  0  0  0  0  0  0  0  0  0
    9.4278  -27.8022    2.2858 C   0  0  0  0  0  0  0  0  0  0  0  0
   10.6521  -27.7959    1.6048 C   0  0  0  0  0  0  0  0  0  0  0  0
   10.7064  -27.5377    0.2325 C   0  0  0  0  0  0  0  0  0  0  0  0
    9.5457  -27.2787   -0.5063 C   0  0  0  0  0  0  0  0  0  0  0  0
    8.3399  -27.2938    0.1975 C   0  0  0  0  0  0  0  0  0  0  0  0
    7.0415  -27.0890   -0.1869 N   0  0  0  0  0  0  0  0  0  0  0  0
  1  2  1  0
  2  3  2  0
  3  4  1  0
  4  5  2  0
  5  6  1  0
  6  7  2  0
  7  8  1  0
  8  9  1  0
  9 10  1  0
 10 11  2  0
 10 12  1  0
 12 13  1  0
 13 14  1  0
 14 15  1  0
 15 16  1  0
 16 17  1  0
 17 18  1  0
 18 19  2  0
 19 20  1  0
 20 21  2  0
 21 22  1  0
 22 23  2  0
 23 24  1  0
 24 25  2  0
 25 26  1  0
  7  2  1  0
 14  8  1  0
 26 18  1  0
 25 20  1  0
M  END
$$$$
