
     RDKit          3D

 26 28  0  0  0  0  0  0  0  0999 V2000
   40.8549   21.7686  -34.8894 C   0  0  0  0  0  0  0  0  0  0  0  0
   39.7424   22.0208  -34.0384 O   0  0  0  0  0  0  0  0  0  0  0  0
   40.0064   22.2684  -32.7172 C   0  0  0  0  0  0  0  0  0  0  0  0
   41.2641   22.1533  -32.1208 C   0  0  0  0  0  0  0  0  0  0  0  0
   41.4261   22.4023  -30.7528 C   0  0  0  0  0  0  0  0  0  0  0  0
   40.3495   22.8087  -29.9658 C   0  0  0  0  0  0  0  0  0  0  0  0
   40.4906   22.9328  -28.5786 N   0  0  0  0  0  0  0  0  0  0  0  0
   39.0839   22.8638  -30.5499 C   0  0  0  0  0  0  0  0  0  0  0  0
   38.9010   22.6257  -31.9261 C   0  0  0  0  0  0  0  0  0  0  0  0
   37.5082   22.6972  -32.5074 C   0  0  0  0  0  0  0  0  0  0  0  0
   36.9452   21.3553  -32.6650 N   0  0  0  0  0  0  0  0  0  0  0  0
   35.2720   21.2078  -32.7165 S   0  0  0  0  0  0  0  0  0  0  0  0
   34.7775   22.4612  -33.2447 O   0  0  0  0  0  0  0  0  0  0  0  0
   35.0202   19.9351  -33.3588 O   0  0  0  0  0  0  0  0  0  0  0  0
   34.8198   21.0346  -31.0099 C   0  0  0  0  0  0  0  0  0  0  0  0
   35.7991   20.6528  -30.0842 C   0  0  0  0  0  0  0  0  0  0  0  0
   35.4452   20.5743  -28.7518 C   0  0  0  0  0  0  0  0  0  0  0  0
   34.2079   20.8437  -28.2954 N   0  0  0  0  0  0  0  0  0  0  0  0
   33.2806   21.1873  -29.2223 C   0  0  0  0  0  0  0  0  0  0  0  0
   33.5084   21.2990  -30.5982 C   0  0  0  0  0  0  0  0  0  0  0  0
   32.4834   21.5983  -31.4996 N   0  0  0  0  0  0  0  0  0  0  0  0
   31.7968   22.8854  -31.3064 C   0  0  0  0  0  0  0  0  0  0  0  0
   30.3155   22.6879  -31.0032 C   0  0  0  0  0  0  0  0  0  0  0  0
   29.6083   21.8971  -32.1067 C   0  0  0  0  0  0  0  0  0  0  0  0
   30.5213   20.8664  -32.7749 C   0  0  0  0  0  0  0  0  0  0  0  0
   31.6523   20.4328  -31.8479 C   0  0  0  0  0  0  0  0  0  0  0  0
  1  2  1  0
  2  3  1  0
  3  4  2  0
  4  5  1  0
  5  6  2  0
  6  7  1  0
  6  8  1  0
  8  9  2  0
  9 10  1  0
 10 11  1  0
 11 12  1  0
 12 13  2  0
 12 14  2  0
 12 15  1  0
 15 16  2  0
 16 17  1  0
 17 18  2  0
 18 19  1  0
 19 20  2  0
 20 21  1  0
 21 22  1  0
 22 23  1  0
 23 24  1  0
 24 25  1  0
 25 26  1  0
  9  3  1  0
 20 15  1  0
 26 21  1  0
M  END
$$$$
