
     RDKit          3D

 28 31  0  0  0  0  0  0  0  0999 V2000
   -8.8183  -20.7672  -36.2590 N   0  0  0  0  0  0  0  0  0  0  0  0
   -8.3044  -21.6093  -37.3407 C   0  0  0  0  0  0  0  0  0  0  0  0
   -9.2560  -22.7304  -37.6817 C   0  0  0  0  0  0  0  0  0  0  0  0
  -10.5645  -22.3941  -38.0723 C   0  0  0  0  0  0  0  0  0  0  0  0
  -11.4386  -23.3941  -38.4559 C   0  0  0  0  0  0  0  0  0  0  0  0
  -11.1062  -24.6960  -38.4899 N   0  0  0  0  0  0  0  0  0  0  0  0
   -9.8396  -25.0021  -38.1184 C   0  0  0  0  0  0  0  0  0  0  0  0
   -8.8659  -24.0839  -37.6951 C   0  0  0  0  0  0  0  0  0  0  0  0
   -7.5736  -24.4607  -37.2825 N   0  0  0  0  0  0  0  0  0  0  0  0
   -6.8476  -25.3794  -38.1828 C   0  0  0  0  0  0  0  0  0  0  0  0
   -7.0595  -26.8405  -37.8300 C   0  0  0  0  0  0  0  0  0  0  0  0
   -7.1618  -27.7108  -38.6975 O   0  0  0  0  0  0  0  0  0  0  0  0
   -7.0143  -27.2122  -36.3688 C   0  0  0  0  0  0  0  0  0  0  0  0
   -7.7576  -26.2023  -35.5042 C   0  0  0  0  0  0  0  0  0  0  0  0
   -7.4610  -24.7277  -35.8242 C   0  0  0  0  0  0  0  0  0  0  0  0
   -6.1051  -24.2018  -35.2534 C   0  0  0  0  0  0  0  0  0  0  0  0
   -4.9091  -24.9610  -35.6504 N   0  0  0  0  0  0  0  0  0  0  0  0
   -3.6615  -24.1825  -35.4733 C   0  0  0  0  0  0  0  0  0  0  0  0
   -3.1824  -24.1751  -34.0135 C   0  0  0  0  0  0  0  0  0  0  0  0
   -2.3409  -25.4401  -33.8376 C   0  0  0  0  0  0  0  0  0  0  0  0
   -2.1689  -26.0337  -35.2345 C   0  0  0  0  0  0  0  0  0  0  0  0
   -2.4665  -24.8771  -36.2171 C   0  0  0  0  0  0  0  0  0  0  0  0
   -1.3051  -23.9690  -36.4189 N   0  0  0  0  0  0  0  0  0  0  0  0
   -1.5862  -22.9157  -37.4053 C   0  0  0  0  0  0  0  0  0  0  0  0
   -0.4900  -21.8423  -37.3665 C   0  0  0  0  0  0  0  0  0  0  0  0
    0.9144  -22.4202  -37.1978 C   0  0  0  0  0  0  0  0  0  0  0  0
    0.9429  -23.8843  -37.6030 C   0  0  0  0  0  0  0  0  0  0  0  0
   -0.0783  -24.7031  -36.7989 C   0  0  0  0  0  0  0  0  0  0  0  0
  1  2  1  0
  2  3  1  0
  3  4  2  0
  4  5  1  0
  5  6  2  0
  6  7  1  0
  7  8  2  0
  8  9  1  0
  9 10  1  0
 10 11  1  0
 11 12  2  0
 11 13  1  0
 13 14  1  0
 14 15  1  0
 15 16  1  0
 16 17  1  0
 17 18  1  0
 18 19  1  0
 19 20  1  0
 20 21  1  0
 21 22  1  0
 22 23  1  0
 23 24  1  0
 24 25  1  0
 25 26  1  0
 26 27  1  0
 27 28  1  0
  8  3  1  0
 15  9  1  0
 22 18  1  0
 28 23  1  0
M  END
$$$$
