
     RDKit          3D

 19 20  0  0  0  0  0  0  0  0999 V2000
  -34.0209    5.7227   22.5111 C   0  0  0  0  0  0  0  0  0  0  0  0
  -33.3006    5.7293   21.2438 N   0  0  0  0  0  0  0  0  0  0  0  0
  -31.9322    5.1848   21.3791 C   0  0  0  0  0  0  0  0  0  0  0  0
  -31.8970    3.6382   21.5119 C   0  0  0  0  0  0  0  0  0  0  0  0
  -30.4564    3.1135   21.5165 C   0  0  0  0  0  0  0  0  0  0  0  0
  -29.8336    3.1846   22.8989 C   0  0  0  0  0  0  0  0  0  0  0  0
  -30.2100    4.0083   23.7409 O   0  0  0  0  0  0  0  0  0  0  0  0
  -28.7577    2.1672   23.2320 C   0  0  0  0  0  0  0  0  0  0  0  0
  -27.6396    2.1594   22.2428 C   0  0  0  0  0  0  0  0  0  0  0  0
  -27.3398    1.1464   21.3514 C   0  0  0  0  0  0  0  0  0  0  0  0
  -26.2196    1.5103   20.6505 N   0  0  0  0  0  0  0  0  0  0  0  0
  -25.7997    2.7594   21.0373 C   0  0  0  0  0  0  0  0  0  0  0  0
  -24.7208    3.5290   20.5848 C   0  0  0  0  0  0  0  0  0  0  0  0
  -24.5204    4.7770   21.1814 C   0  0  0  0  0  0  0  0  0  0  0  0
  -25.3637    5.2333   22.1915 C   0  0  0  0  0  0  0  0  0  0  0  0
  -26.4391    4.4510   22.6315 C   0  0  0  0  0  0  0  0  0  0  0  0
  -26.6653    3.1893   22.0433 C   0  0  0  0  0  0  0  0  0  0  0  0
  -32.5982    3.0933   20.3719 O   0  0  0  0  0  0  0  0  0  0  0  0
  -33.2182    1.8410   20.6436 C   0  0  0  0  0  0  0  0  0  0  0  0
  1  2  1  0
  2  3  1  0
  3  4  1  0
  4  5  1  0
  5  6  1  0
  6  7  2  0
  6  8  1  0
  8  9  1  0
  9 10  2  0
 10 11  1  0
 11 12  1  0
 12 13  2  0
 13 14  1  0
 14 15  2  0
 15 16  1  0
 16 17  2  0
  4 18  1  0
 18 19  1  0
 17  9  1  0
 17 12  1  0
M  END
$$$$
