
     RDKit          3D

 26 29  0  0  0  0  0  0  0  0999 V2000
   -9.6936   -0.3940   -0.3868 N   0  0  0  0  0  0  0  0  0  0  0  0
   -9.2763   -1.3143   -1.4532 C   0  0  0  0  0  0  0  0  0  0  0  0
   -9.3058   -0.7115   -2.8418 C   0  0  0  0  0  0  0  0  0  0  0  0
   -9.3275    0.6805   -3.0351 C   0  0  0  0  0  0  0  0  0  0  0  0
   -9.3583    1.1923   -4.3241 C   0  0  0  0  0  0  0  0  0  0  0  0
   -9.3549    0.4296   -5.4328 N   0  0  0  0  0  0  0  0  0  0  0  0
   -9.3012   -0.9073   -5.2293 C   0  0  0  0  0  0  0  0  0  0  0  0
   -9.2639   -1.5426   -3.9773 C   0  0  0  0  0  0  0  0  0  0  0  0
   -9.1704   -2.9392   -3.8303 N   0  0  0  0  0  0  0  0  0  0  0  0
  -10.4205   -3.6131   -4.2407 C   0  0  0  0  0  0  0  0  0  0  0  0
  -10.1809   -5.0860   -4.5535 C   0  0  0  0  0  0  0  0  0  0  0  0
   -9.1666   -5.2491   -5.6842 C   0  0  0  0  0  0  0  0  0  0  0  0
   -8.0158   -4.2406   -5.6100 C   0  0  0  0  0  0  0  0  0  0  0  0
   -7.8887   -3.6053   -4.2166 C   0  0  0  0  0  0  0  0  0  0  0  0
   -6.6445   -2.7037   -4.0670 C   0  0  0  0  0  0  0  0  0  0  0  0
   -5.3329   -3.4860   -4.1578 C   0  0  0  0  0  0  0  0  0  0  0  0
   -4.2226   -2.6116   -3.8267 N   0  0  0  0  0  0  0  0  0  0  0  0
   -2.9551   -3.2020   -3.8381 C   0  0  0  0  0  0  0  0  0  0  0  0
   -2.7937   -4.5266   -3.5719 N   0  0  0  0  0  0  0  0  0  0  0  0
   -1.5426   -5.0403   -3.5606 C   0  0  0  0  0  0  0  0  0  0  0  0
   -0.3729   -4.4104   -3.7954 N   0  0  0  0  0  0  0  0  0  0  0  0
   -0.5861   -3.1164   -4.0635 C   0  0  0  0  0  0  0  0  0  0  0  0
    0.3567   -2.1697   -4.3455 N   0  0  0  0  0  0  0  0  0  0  0  0
   -0.2964   -0.9887   -4.5656 C   0  0  0  0  0  0  0  0  0  0  0  0
   -1.6015   -1.1191   -4.4380 N   0  0  0  0  0  0  0  0  0  0  0  0
   -1.7962   -2.4478   -4.1105 C   0  0  0  0  0  0  0  0  0  0  0  0
  1  2  1  0
  2  3  1  0
  3  4  2  0
  4  5  1  0
  5  6  2  0
  6  7  1  0
  7  8  2  0
  8  9  1  0
  9 10  1  0
 10 11  1  0
 11 12  1  0
 12 13  1  0
 13 14  1  0
 14 15  1  0
 15 16  1  0
 16 17  1  0
 17 18  1  0
 18 19  2  0
 19 20  1  0
 20 21  2  0
 21 22  1  0
 22 23  1  0
 23 24  1  0
 24 25  2  0
 25 26  1  0
  8  3  1  0
 14  9  1  0
 26 18  1  0
 26 22  2  0
M  END
$$$$
