
     RDKit          3D

 18 19  0  0  0  0  0  0  0  0999 V2000
  -45.8797  -48.9298   25.8176 N   0  0  0  0  0  0  0  0  0  0  0  0
  -46.7003  -49.9720   25.2114 C   0  0  0  0  0  0  0  0  0  0  0  0
  -46.5976  -51.2636   26.0243 C   0  0  0  0  0  0  0  0  0  0  0  0
  -47.3445  -52.4268   25.3726 C   0  0  0  0  0  0  0  0  0  0  0  0
  -48.8594  -52.3143   25.4444 C   0  0  0  0  0  0  0  0  0  0  0  0
  -49.4281  -51.4051   26.0473 O   0  0  0  0  0  0  0  0  0  0  0  0
  -49.6345  -53.4125   24.7290 C   0  0  0  0  0  0  0  0  0  0  0  0
  -51.1480  -53.2456   24.8471 C   0  0  0  0  0  0  0  0  0  0  0  0
  -51.6765  -52.1052   23.9721 C   0  0  0  0  0  0  0  0  0  0  0  0
  -53.1049  -51.8166   24.2753 C   0  0  0  0  0  0  0  0  0  0  0  0
  -54.1596  -52.2937   23.6482 N   0  0  0  0  0  0  0  0  0  0  0  0
  -55.2454  -51.7479   24.2897 C   0  0  0  0  0  0  0  0  0  0  0  0
  -56.6146  -51.9150   24.0372 C   0  0  0  0  0  0  0  0  0  0  0  0
  -57.5352  -51.2389   24.8484 C   0  0  0  0  0  0  0  0  0  0  0  0
  -57.1010  -50.4140   25.8894 C   0  0  0  0  0  0  0  0  0  0  0  0
  -55.7384  -50.2349   26.1566 C   0  0  0  0  0  0  0  0  0  0  0  0
  -54.8437  -50.9201   25.3321 C   0  0  0  0  0  0  0  0  0  0  0  0
  -53.4749  -50.9807   25.3013 N   0  0  0  0  0  0  0  0  0  0  0  0
  1  2  1  0
  2  3  1  0
  3  4  1  0
  4  5  1  0
  5  6  2  0
  5  7  1  0
  7  8  1  0
  8  9  1  0
  9 10  1  0
 10 11  2  0
 11 12  1  0
 12 13  2  0
 13 14  1  0
 14 15  2  0
 15 16  1  0
 16 17  2  0
 17 18  1  0
 18 10  1  0
 17 12  1  0
M  END
$$$$
