
     RDKit          3D

 16 17  0  0  0  0  0  0  0  0999 V2000
   68.5534  -26.9578 -115.2770 N   0  0  0  0  0  0  0  0  0  0  0  0
   69.1150  -28.0486 -114.4919 C   0  0  0  0  0  0  0  0  0  0  0  0
   68.0186  -28.7363 -113.6814 C   0  0  0  0  0  0  0  0  0  0  0  0
   68.6011  -29.8184 -112.7813 C   0  0  0  0  0  0  0  0  0  0  0  0
   67.5336  -30.7070 -112.1732 C   0  0  0  0  0  0  0  0  0  0  0  0
   67.4849  -31.9066 -112.4602 O   0  0  0  0  0  0  0  0  0  0  0  0
   66.5579  -30.0827 -111.1924 C   0  0  0  0  0  0  0  0  0  0  0  0
   65.2521  -29.7393 -111.8304 C   0  0  0  0  0  0  0  0  0  0  0  0
   64.3852  -30.6252 -112.4425 C   0  0  0  0  0  0  0  0  0  0  0  0
   63.3003  -29.9288 -112.8971 N   0  0  0  0  0  0  0  0  0  0  0  0
   63.4278  -28.5961 -112.5858 C   0  0  0  0  0  0  0  0  0  0  0  0
   62.5656  -27.5247 -112.8486 C   0  0  0  0  0  0  0  0  0  0  0  0
   62.9535  -26.2567 -112.4078 C   0  0  0  0  0  0  0  0  0  0  0  0
   64.1552  -26.0712 -111.7301 C   0  0  0  0  0  0  0  0  0  0  0  0
   65.0049  -27.1540 -111.4745 C   0  0  0  0  0  0  0  0  0  0  0  0
   64.6403  -28.4451 -111.9111 C   0  0  0  0  0  0  0  0  0  0  0  0
  1  2  1  0
  2  3  1  0
  3  4  1  0
  4  5  1  0
  5  6  2  0
  5  7  1  0
  7  8  1  0
  8  9  2  0
  9 10  1  0
 10 11  1  0
 11 12  2  0
 12 13  1  0
 13 14  2  0
 14 15  1  0
 15 16  2  0
 16  8  1  0
 16 11  1  0
M  END
$$$$
