
     RDKit          3D

 26 28  0  0  0  0  0  0  0  0999 V2000
  -31.8515   -7.6469   50.8590 C   0  0  0  0  0  0  0  0  0  0  0  0
  -32.5511   -8.2277   51.9951 N   0  0  0  0  0  0  0  0  0  0  0  0
  -33.9409   -7.7754   52.0440 C   0  0  0  0  0  0  0  0  0  0  0  0
  -34.6785   -8.4272   53.1895 C   0  0  0  0  0  0  0  0  0  0  0  0
  -34.3362   -8.1319   54.5113 C   0  0  0  0  0  0  0  0  0  0  0  0
  -35.0170   -8.7340   55.5685 C   0  0  0  0  0  0  0  0  0  0  0  0
  -36.0486   -9.6490   55.3201 C   0  0  0  0  0  0  0  0  0  0  0  0
  -36.7227  -10.2831   56.3387 O   0  0  0  0  0  0  0  0  0  0  0  0
  -35.9430  -10.5998   57.4855 C   0  0  0  0  0  0  0  0  0  0  0  0
  -36.4442   -9.9459   53.9932 C   0  0  0  0  0  0  0  0  0  0  0  0
  -37.5045  -10.8222   53.7138 N   0  0  0  0  0  0  0  0  0  0  0  0
  -37.3504  -11.7237   52.5733 C   0  0  0  0  0  0  0  0  0  0  0  0
  -38.2024  -12.9736   52.7523 C   0  0  0  0  0  0  0  0  0  0  0  0
  -39.6559  -12.6165   53.0177 C   0  0  0  0  0  0  0  0  0  0  0  0
  -39.7562  -11.6942   54.2265 C   0  0  0  0  0  0  0  0  0  0  0  0
  -38.8575  -10.4262   54.1604 C   0  0  0  0  0  0  0  0  0  0  0  0
  -39.6128   -9.2648   53.6216 N   0  0  0  0  0  0  0  0  0  0  0  0
  -39.0668   -7.9882   54.0943 C   0  0  0  0  0  0  0  0  0  0  0  0
  -39.9804   -6.8258   53.7071 C   0  0  0  0  0  0  0  0  0  0  0  0
  -40.2351   -6.7522   52.2045 C   0  0  0  0  0  0  0  0  0  0  0  0
  -39.6455   -7.9430   51.4557 C   0  0  0  0  0  0  0  0  0  0  0  0
  -39.8911   -9.2846   52.1677 C   0  0  0  0  0  0  0  0  0  0  0  0
  -41.3553   -9.7091   51.9251 C   0  0  0  0  0  0  0  0  0  0  0  0
  -42.2404   -9.3770   52.9129 N   0  0  0  0  0  0  0  0  0  0  0  0
  -41.7382  -10.2592   50.8965 O   0  0  0  0  0  0  0  0  0  0  0  0
  -35.7241   -9.3328   52.9476 C   0  0  0  0  0  0  0  0  0  0  0  0
  1  2  1  0
  2  3  1  0
  3  4  1  0
  4  5  2  0
  5  6  1  0
  6  7  2  0
  7  8  1  0
  8  9  1  0
  7 10  1  0
 10 11  1  0
 11 12  1  0
 12 13  1  0
 13 14  1  0
 14 15  1  0
 15 16  1  0
 16 17  1  0
 17 18  1  0
 18 19  1  0
 19 20  1  0
 20 21  1  0
 21 22  1  0
 22 23  1  0
 23 24  1  0
 23 25  2  0
 10 26  2  0
 26  4  1  0
 16 11  1  0
 22 17  1  0
M  END
$$$$
