
     RDKit          3D

 30 32  0  0  0  0  0  0  0  0999 V2000
    3.4629   -8.2538   10.7123 N   0  0  0  0  0  0  0  0  0  0  0  0
    4.8174   -7.2422   10.6364 S   0  0  0  0  0  0  0  0  0  0  0  0
    4.2812   -5.9459   10.9840 O   0  0  0  0  0  0  0  0  0  0  0  0
    5.8153   -7.9276   11.4259 O   0  0  0  0  0  0  0  0  0  0  0  0
    5.3007   -7.2742    8.9377 C   0  0  0  0  0  0  0  0  0  0  0  0
    4.7057   -8.2079    8.0780 C   0  0  0  0  0  0  0  0  0  0  0  0
    5.0275   -8.1584    6.7364 C   0  0  0  0  0  0  0  0  0  0  0  0
    5.8758   -7.2575    6.2118 N   0  0  0  0  0  0  0  0  0  0  0  0
    6.4402   -6.3747    7.0750 C   0  0  0  0  0  0  0  0  0  0  0  0
    6.2113   -6.3226    8.4539 C   0  0  0  0  0  0  0  0  0  0  0  0
    6.8392   -5.3922    9.2831 N   0  0  0  0  0  0  0  0  0  0  0  0
    6.8139   -3.9897    8.8451 C   0  0  0  0  0  0  0  0  0  0  0  0
    7.0468   -3.0760   10.0476 C   0  0  0  0  0  0  0  0  0  0  0  0
    8.3251   -3.4483   10.7922 C   0  0  0  0  0  0  0  0  0  0  0  0
    8.3045   -4.9253   11.1840 C   0  0  0  0  0  0  0  0  0  0  0  0
    8.0700   -5.8543    9.9755 C   0  0  0  0  0  0  0  0  0  0  0  0
    9.3025   -5.9082    9.0423 C   0  0  0  0  0  0  0  0  0  0  0  0
    9.6891   -7.3549    8.7154 C   0  0  0  0  0  0  0  0  0  0  0  0
   10.7635   -7.3723    7.7271 N   0  0  0  0  0  0  0  0  0  0  0  0
   11.2510   -8.7139    7.4225 C   0  0  0  0  0  0  0  0  0  0  0  0
   12.0257   -9.4064    8.5523 C   0  0  0  0  0  0  0  0  0  0  0  0
   13.1917   -8.6020    9.1420 C   0  0  0  0  0  0  0  0  0  0  0  0
   14.3210   -8.3649    8.1398 C   0  0  0  0  0  0  0  0  0  0  0  0
   15.3747   -7.4557    8.7114 C   0  0  0  0  0  0  0  0  0  0  0  0
   16.3627   -8.0116    9.4410 N   0  0  0  0  0  0  0  0  0  0  0  0
   17.3109   -7.1667    9.9113 C   0  0  0  0  0  0  0  0  0  0  0  0
   17.2872   -5.8107    9.6907 C   0  0  0  0  0  0  0  0  0  0  0  0
   18.2499   -4.9998   10.1477 F   0  0  0  0  0  0  0  0  0  0  0  0
   16.2321   -5.3389    8.9513 C   0  0  0  0  0  0  0  0  0  0  0  0
   15.2594   -6.1342    8.4552 N   0  0  0  0  0  0  0  0  0  0  0  0
  1  2  1  0
  2  3  2  0
  2  4  2  0
  2  5  1  0
  5  6  2  0
  6  7  1  0
  7  8  2  0
  8  9  1  0
  9 10  2  0
 10 11  1  0
 11 12  1  0
 12 13  1  0
 13 14  1  0
 14 15  1  0
 15 16  1  0
 16 17  1  0
 17 18  1  0
 18 19  1  0
 19 20  1  0
 20 21  1  0
 21 22  1  0
 22 23  1  0
 23 24  1  0
 24 25  2  0
 25 26  1  0
 26 27  2  0
 27 28  1  0
 27 29  1  0
 29 30  2  0
 10  5  1  0
 16 11  1  0
 30 24  1  0
M  END
$$$$
