
     RDKit          3D

 29 32  0  0  0  0  0  0  0  0999 V2000
    9.4459    9.4670    2.4409 N   0  0  0  0  0  0  0  0  0  0  0  0
    9.1450    9.3845    1.0098 C   0  0  0  0  0  0  0  0  0  0  0  0
    9.1598   10.7485    0.3516 C   0  0  0  0  0  0  0  0  0  0  0  0
    8.0954   11.6291    0.6514 C   0  0  0  0  0  0  0  0  0  0  0  0
    8.0027   12.8819    0.0514 C   0  0  0  0  0  0  0  0  0  0  0  0
    8.9792   13.2624   -0.8608 C   0  0  0  0  0  0  0  0  0  0  0  0
    8.8900   14.8404   -1.6576 S   0  0  0  0  0  0  0  0  0  0  0  0
   10.0834   15.7041   -0.8429 N   0  0  0  0  0  0  0  0  0  0  0  0
    7.6431   15.4726   -1.2914 O   0  0  0  0  0  0  0  0  0  0  0  0
    9.3082   14.6800   -3.0291 O   0  0  0  0  0  0  0  0  0  0  0  0
   10.0342   12.4026   -1.1822 C   0  0  0  0  0  0  0  0  0  0  0  0
   10.1538   11.1376   -0.5777 C   0  0  0  0  0  0  0  0  0  0  0  0
   11.2312   10.3028   -0.8901 N   0  0  0  0  0  0  0  0  0  0  0  0
   11.6569   10.2477   -2.2938 C   0  0  0  0  0  0  0  0  0  0  0  0
   12.2393    8.8632   -2.5850 C   0  0  0  0  0  0  0  0  0  0  0  0
   13.0804    8.3119   -1.4331 C   0  0  0  0  0  0  0  0  0  0  0  0
   13.5327    9.4220   -0.4930 C   0  0  0  0  0  0  0  0  0  0  0  0
   12.3277   10.1725    0.1223 C   0  0  0  0  0  0  0  0  0  0  0  0
   12.7737   11.5279    0.7386 C   0  0  0  0  0  0  0  0  0  0  0  0
   13.7148   11.3613    1.8463 N   0  0  0  0  0  0  0  0  0  0  0  0
   15.0292   11.5520    1.6338 C   0  0  0  0  0  0  0  0  0  0  0  0
   15.6323   11.9901    0.5554 N   0  0  0  0  0  0  0  0  0  0  0  0
   16.9727   11.9888    0.8545 C   0  0  0  0  0  0  0  0  0  0  0  0
   18.0703   12.3586    0.0641 C   0  0  0  0  0  0  0  0  0  0  0  0
   19.3554   12.2633    0.6137 C   0  0  0  0  0  0  0  0  0  0  0  0
   19.5430   11.8101    1.9223 C   0  0  0  0  0  0  0  0  0  0  0  0
   18.4596   11.4366    2.7265 C   0  0  0  0  0  0  0  0  0  0  0  0
   17.1914   11.5409    2.1521 C   0  0  0  0  0  0  0  0  0  0  0  0
   15.9331   11.2729    2.6247 N   0  0  0  0  0  0  0  0  0  0  0  0
  1  2  1  0
  2  3  1  0
  3  4  2  0
  4  5  1  0
  5  6  2  0
  6  7  1  0
  7  8  1  0
  7  9  2  0
  7 10  2  0
  6 11  1  0
 11 12  2  0
 12 13  1  0
 13 14  1  0
 14 15  1  0
 15 16  1  0
 16 17  1  0
 17 18  1  0
 18 19  1  0
 19 20  1  0
 20 21  1  0
 21 22  2  0
 22 23  1  0
 23 24  2  0
 24 25  1  0
 25 26  2  0
 26 27  1  0
 27 28  2  0
 28 29  1  0
 12  3  1  0
 18 13  1  0
 29 21  1  0
 28 23  1  0
M  END
$$$$
