
     RDKit          3D

 19 20  0  0  0  0  0  0  0  0999 V2000
   32.9955   -5.1628  -16.0837 N   0  0  0  0  0  0  0  0  0  0  0  0
   32.3562   -3.8480  -16.0953 C   0  0  0  0  0  0  0  0  0  0  0  0
   31.7062   -3.5010  -14.7632 C   0  0  0  0  0  0  0  0  0  0  0  0
   30.3770   -4.2023  -14.5704 C   0  0  0  0  0  0  0  0  0  0  0  0
   30.2191   -5.0192  -13.6599 O   0  0  0  0  0  0  0  0  0  0  0  0
   29.2638   -3.8731  -15.5506 C   0  0  0  0  0  0  0  0  0  0  0  0
   27.8863   -4.0676  -14.9312 C   0  0  0  0  0  0  0  0  0  0  0  0
   27.6166   -3.0712  -13.8172 C   0  0  0  0  0  0  0  0  0  0  0  0
   28.3501   -2.0979  -13.6292 O   0  0  0  0  0  0  0  0  0  0  0  0
   26.3827   -3.3160  -12.9688 C   0  0  0  0  0  0  0  0  0  0  0  0
   25.1324   -3.0324  -13.7305 C   0  0  0  0  0  0  0  0  0  0  0  0
   24.5929   -1.7853  -13.9721 C   0  0  0  0  0  0  0  0  0  0  0  0
   23.4533   -1.9445  -14.7116 N   0  0  0  0  0  0  0  0  0  0  0  0
   23.2398   -3.2730  -14.9749 C   0  0  0  0  0  0  0  0  0  0  0  0
   22.2146   -3.8915  -15.7000 C   0  0  0  0  0  0  0  0  0  0  0  0
   22.2491   -5.2872  -15.8150 C   0  0  0  0  0  0  0  0  0  0  0  0
   23.2692   -6.0275  -15.2261 C   0  0  0  0  0  0  0  0  0  0  0  0
   24.2838   -5.3929  -14.4991 C   0  0  0  0  0  0  0  0  0  0  0  0
   24.2734   -3.9855  -14.3688 C   0  0  0  0  0  0  0  0  0  0  0  0
  1  2  1  0
  2  3  1  0
  3  4  1  0
  4  5  2  0
  4  6  1  0
  6  7  1  0
  7  8  1  0
  8  9  2  0
  8 10  1  0
 10 11  1  0
 11 12  2  0
 12 13  1  0
 13 14  1  0
 14 15  2  0
 15 16  1  0
 16 17  2  0
 17 18  1  0
 18 19  2  0
 19 11  1  0
 19 14  1  0
M  END
$$$$
