
     RDKit          3D

 23 25  0  0  0  0  0  0  0  0999 V2000
   -6.8482  -26.9439   19.3915 N   0  0  0  0  0  0  0  0  0  0  0  0
   -7.3990  -25.7272   18.8040 C   0  0  0  0  0  0  0  0  0  0  0  0
   -6.4898  -25.1274   17.7300 C   0  0  0  0  0  0  0  0  0  0  0  0
   -6.3958  -25.9881   16.4650 C   0  0  0  0  0  0  0  0  0  0  0  0
   -5.4489  -25.3929   15.4416 C   0  0  0  0  0  0  0  0  0  0  0  0
   -5.8719  -24.2603   14.7259 C   0  0  0  0  0  0  0  0  0  0  0  0
   -5.0026  -23.6600   13.8316 C   0  0  0  0  0  0  0  0  0  0  0  0
   -3.7526  -24.0977   13.6007 N   0  0  0  0  0  0  0  0  0  0  0  0
   -3.3607  -25.1890   14.3048 C   0  0  0  0  0  0  0  0  0  0  0  0
   -4.1485  -25.8966   15.2245 C   0  0  0  0  0  0  0  0  0  0  0  0
   -3.7161  -27.0670   15.8785 N   0  0  0  0  0  0  0  0  0  0  0  0
   -4.1793  -28.2816   15.1806 C   0  0  0  0  0  0  0  0  0  0  0  0
   -4.1664  -29.4417   16.1650 C   0  0  0  0  0  0  0  0  0  0  0  0
   -4.8555  -30.4494   16.0047 O   0  0  0  0  0  0  0  0  0  0  0  0
   -3.2452  -29.2939   17.3538 C   0  0  0  0  0  0  0  0  0  0  0  0
   -2.0016  -28.5297   16.9163 C   0  0  0  0  0  0  0  0  0  0  0  0
   -2.3119  -27.1040   16.3559 C   0  0  0  0  0  0  0  0  0  0  0  0
   -1.8816  -26.0452   17.2735 N   0  0  0  0  0  0  0  0  0  0  0  0
   -2.5250  -26.0577   18.5797 C   0  0  0  0  0  0  0  0  0  0  0  0
   -2.3682  -24.6893   19.2527 C   0  0  0  0  0  0  0  0  0  0  0  0
   -0.9899  -24.0591   19.0345 C   0  0  0  0  0  0  0  0  0  0  0  0
    0.0310  -25.0970   18.5892 C   0  0  0  0  0  0  0  0  0  0  0  0
   -0.4347  -25.8320   17.3252 C   0  0  0  0  0  0  0  0  0  0  0  0
  1  2  1  0
  2  3  1  0
  3  4  1  0
  4  5  1  0
  5  6  2  0
  6  7  1  0
  7  8  2  0
  8  9  1  0
  9 10  2  0
 10 11  1  0
 11 12  1  0
 12 13  1  0
 13 14  2  0
 13 15  1  0
 15 16  1  0
 16 17  1  0
 17 18  1  0
 18 19  1  0
 19 20  1  0
 20 21  1  0
 21 22  1  0
 22 23  1  0
 10  5  1  0
 17 11  1  0
 23 18  1  0
M  END
$$$$
