
     RDKit          3D

 26 28  0  0  0  0  0  0  0  0999 V2000
   -1.2738   -9.4166  -20.5967 C   0  0  0  0  0  0  0  0  0  0  0  0
   -0.7268   -8.4124  -21.4714 N   0  0  0  0  0  0  0  0  0  0  0  0
    0.2439   -7.5399  -21.0344 C   0  0  0  0  0  0  0  0  0  0  0  0
    0.7635   -7.6052  -19.9307 O   0  0  0  0  0  0  0  0  0  0  0  0
    0.6413   -6.5115  -22.0722 C   0  0  0  0  0  0  0  0  0  0  0  0
   -0.0580   -5.1847  -21.8855 C   0  0  0  0  0  0  0  0  0  0  0  0
    0.5494   -4.2434  -21.0362 C   0  0  0  0  0  0  0  0  0  0  0  0
   -0.0327   -2.9972  -20.8040 C   0  0  0  0  0  0  0  0  0  0  0  0
   -1.2335   -2.6704  -21.4209 C   0  0  0  0  0  0  0  0  0  0  0  0
   -1.9057   -1.4861  -21.2944 O   0  0  0  0  0  0  0  0  0  0  0  0
   -1.2880   -0.4835  -20.4971 C   0  0  0  0  0  0  0  0  0  0  0  0
   -1.8527   -3.6070  -22.2541 C   0  0  0  0  0  0  0  0  0  0  0  0
   -1.2982   -4.8788  -22.4907 C   0  0  0  0  0  0  0  0  0  0  0  0
   -1.9175   -5.8246  -23.3569 N   0  0  0  0  0  0  0  0  0  0  0  0
   -1.4333   -5.5598  -24.7394 C   0  0  0  0  0  0  0  0  0  0  0  0
   -1.9491   -6.5897  -25.7377 C   0  0  0  0  0  0  0  0  0  0  0  0
   -1.3958   -6.7446  -26.8425 O   0  0  0  0  0  0  0  0  0  0  0  0
   -3.2765   -7.2714  -25.4608 C   0  0  0  0  0  0  0  0  0  0  0  0
   -3.7462   -7.2347  -24.0084 C   0  0  0  0  0  0  0  0  0  0  0  0
   -3.4063   -5.8921  -23.3175 C   0  0  0  0  0  0  0  0  0  0  0  0
   -4.1514   -5.7213  -22.0695 N   0  0  0  0  0  0  0  0  0  0  0  0
   -5.5491   -5.3447  -22.2172 C   0  0  0  0  0  0  0  0  0  0  0  0
   -6.0863   -4.8397  -20.8793 C   0  0  0  0  0  0  0  0  0  0  0  0
   -5.9159   -5.8559  -19.7499 C   0  0  0  0  0  0  0  0  0  0  0  0
   -5.0805   -7.0594  -20.1699 C   0  0  0  0  0  0  0  0  0  0  0  0
   -3.8523   -6.6557  -20.9888 C   0  0  0  0  0  0  0  0  0  0  0  0
  1  2  1  0
  2  3  1  0
  3  4  2  0
  3  5  1  0
  5  6  1  0
  6  7  2  0
  7  8  1  0
  8  9  2  0
  9 10  1  0
 10 11  1  0
  9 12  1  0
 12 13  2  0
 13 14  1  0
 14 15  1  0
 15 16  1  0
 16 17  2  0
 16 18  1  0
 18 19  1  0
 19 20  1  0
 20 21  1  0
 21 22  1  0
 22 23  1  0
 23 24  1  0
 24 25  1  0
 25 26  1  0
 13  6  1  0
 20 14  1  0
 26 21  1  0
M  END
$$$$
