
     RDKit          3D

 18 19  0  0  0  0  0  0  0  0999 V2000
    8.8619   -5.2831  -18.8414 N   0  0  0  0  0  0  0  0  0  0  0  0
    8.3473   -3.9242  -18.6878 C   0  0  0  0  0  0  0  0  0  0  0  0
    7.1136   -3.6585  -19.5402 C   0  0  0  0  0  0  0  0  0  0  0  0
    5.8936   -4.3546  -18.9779 C   0  0  0  0  0  0  0  0  0  0  0  0
    5.4871   -5.4134  -19.4608 O   0  0  0  0  0  0  0  0  0  0  0  0
    5.2378   -3.7452  -17.7527 C   0  0  0  0  0  0  0  0  0  0  0  0
    3.7166   -3.8086  -17.8552 C   0  0  0  0  0  0  0  0  0  0  0  0
    3.1817   -2.8473  -18.9016 C   0  0  0  0  0  0  0  0  0  0  0  0
    3.9567   -2.1041  -19.5099 O   0  0  0  0  0  0  0  0  0  0  0  0
    1.7390   -2.7982  -19.1671 C   0  0  0  0  0  0  0  0  0  0  0  0
    1.1929   -1.9638  -20.1301 C   0  0  0  0  0  0  0  0  0  0  0  0
   -0.1598   -2.1348  -20.1499 N   0  0  0  0  0  0  0  0  0  0  0  0
   -0.5311   -3.0661  -19.2110 C   0  0  0  0  0  0  0  0  0  0  0  0
   -1.8094   -3.5413  -18.8898 C   0  0  0  0  0  0  0  0  0  0  0  0
   -1.9145   -4.5018  -17.8834 C   0  0  0  0  0  0  0  0  0  0  0  0
   -0.7824   -4.9670  -17.2255 C   0  0  0  0  0  0  0  0  0  0  0  0
    0.4889   -4.4810  -17.5589 C   0  0  0  0  0  0  0  0  0  0  0  0
    0.6346   -3.5073  -18.5741 C   0  0  0  0  0  0  0  0  0  0  0  0
  1  2  1  0
  2  3  1  0
  3  4  1  0
  4  5  2  0
  4  6  1  0
  6  7  1  0
  7  8  1  0
  8  9  2  0
  8 10  1  0
 10 11  2  0
 11 12  1  0
 12 13  1  0
 13 14  2  0
 14 15  1  0
 15 16  2  0
 16 17  1  0
 17 18  2  0
 18 10  1  0
 18 13  1  0
M  END
$$$$
