
     RDKit          3D

 19 20  0  0  0  0  0  0  0  0999 V2000
   31.1362   46.9501  -22.1967 C   0  0  0  0  0  0  0  0  0  0  0  0
   29.6909   47.1142  -22.1793 N   0  0  0  0  0  0  0  0  0  0  0  0
   29.0031   45.8622  -22.5371 C   0  0  0  0  0  0  0  0  0  0  0  0
   27.5910   46.1869  -23.0327 C   0  0  0  0  0  0  0  0  0  0  0  0
   27.3271   47.2619  -23.5769 O   0  0  0  0  0  0  0  0  0  0  0  0
   26.5250   45.1437  -22.9214 C   0  0  0  0  0  0  0  0  0  0  0  0
   26.8083   43.8162  -22.5961 C   0  0  0  0  0  0  0  0  0  0  0  0
   25.7718   42.8886  -22.5341 C   0  0  0  0  0  0  0  0  0  0  0  0
   24.4573   43.2858  -22.8091 C   0  0  0  0  0  0  0  0  0  0  0  0
   23.4911   42.3050  -22.7738 O   0  0  0  0  0  0  0  0  0  0  0  0
   23.4734   41.6014  -24.0201 C   0  0  0  0  0  0  0  0  0  0  0  0
   24.1176   44.6256  -23.1123 C   0  0  0  0  0  0  0  0  0  0  0  0
   22.7997   45.0275  -23.3552 N   0  0  0  0  0  0  0  0  0  0  0  0
   21.7678   44.5143  -22.4320 C   0  0  0  0  0  0  0  0  0  0  0  0
   20.6696   45.5512  -22.1690 C   0  0  0  0  0  0  0  0  0  0  0  0
   21.2722   46.9272  -21.9019 C   0  0  0  0  0  0  0  0  0  0  0  0
   22.1716   47.3934  -23.0519 C   0  0  0  0  0  0  0  0  0  0  0  0
   22.4892   46.2786  -24.0489 C   0  0  0  0  0  0  0  0  0  0  0  0
   25.1939   45.5287  -23.1780 C   0  0  0  0  0  0  0  0  0  0  0  0
  1  2  1  0
  2  3  1  0
  3  4  1  0
  4  5  2  0
  4  6  1  0
  6  7  2  0
  7  8  1  0
  8  9  2  0
  9 10  1  0
 10 11  1  0
  9 12  1  0
 12 13  1  0
 13 14  1  0
 14 15  1  0
 15 16  1  0
 16 17  1  0
 17 18  1  0
 12 19  2  0
 19  6  1  0
 18 13  1  0
M  END
$$$$
