
     RDKit          3D

 26 28  0  0  0  0  0  0  0  0999 V2000
   18.7960    2.8114    7.3459 C   0  0  0  0  0  0  0  0  0  0  0  0
   19.3430    3.8155    6.4712 N   0  0  0  0  0  0  0  0  0  0  0  0
   20.3136    4.6881    6.9082 C   0  0  0  0  0  0  0  0  0  0  0  0
   20.8333    4.6227    8.0119 O   0  0  0  0  0  0  0  0  0  0  0  0
   20.7110    5.7164    5.8704 C   0  0  0  0  0  0  0  0  0  0  0  0
   20.0117    7.0432    6.0571 C   0  0  0  0  0  0  0  0  0  0  0  0
   20.6191    7.9846    6.9064 C   0  0  0  0  0  0  0  0  0  0  0  0
   20.0370    9.2308    7.1386 C   0  0  0  0  0  0  0  0  0  0  0  0
   18.8363    9.5576    6.5217 C   0  0  0  0  0  0  0  0  0  0  0  0
   18.1640   10.7418    6.6482 O   0  0  0  0  0  0  0  0  0  0  0  0
   18.7817   11.7445    7.4455 C   0  0  0  0  0  0  0  0  0  0  0  0
   18.2171    8.6209    5.6885 C   0  0  0  0  0  0  0  0  0  0  0  0
   18.7716    7.3492    5.4519 C   0  0  0  0  0  0  0  0  0  0  0  0
   18.1522    6.4033    4.5857 N   0  0  0  0  0  0  0  0  0  0  0  0
   18.6365    6.6681    3.2033 C   0  0  0  0  0  0  0  0  0  0  0  0
   18.1207    5.6383    2.2049 C   0  0  0  0  0  0  0  0  0  0  0  0
   18.6739    5.4834    1.1002 O   0  0  0  0  0  0  0  0  0  0  0  0
   16.7933    4.9566    2.4818 C   0  0  0  0  0  0  0  0  0  0  0  0
   16.3236    4.9933    3.9342 C   0  0  0  0  0  0  0  0  0  0  0  0
   16.6635    6.3358    4.6251 C   0  0  0  0  0  0  0  0  0  0  0  0
   15.9184    6.5066    5.8731 N   0  0  0  0  0  0  0  0  0  0  0  0
   14.5207    6.8832    5.7254 C   0  0  0  0  0  0  0  0  0  0  0  0
   13.9834    7.3883    7.0633 C   0  0  0  0  0  0  0  0  0  0  0  0
   14.1539    6.3721    8.1928 C   0  0  0  0  0  0  0  0  0  0  0  0
   14.9892    5.1685    7.7727 C   0  0  0  0  0  0  0  0  0  0  0  0
   16.2175    5.5722    6.9538 C   0  0  0  0  0  0  0  0  0  0  0  0
  1  2  1  0
  2  3  1  0
  3  4  2  0
  3  5  1  0
  5  6  1  0
  6  7  2  0
  7  8  1  0
  8  9  2  0
  9 10  1  0
 10 11  1  0
  9 12  1  0
 12 13  2  0
 13 14  1  0
 14 15  1  0
 15 16  1  0
 16 17  2  0
 16 18  1  0
 18 19  1  0
 19 20  1  0
 20 21  1  0
 21 22  1  0
 22 23  1  0
 23 24  1  0
 24 25  1  0
 25 26  1  0
 13  6  1  0
 20 14  1  0
 26 21  1  0
M  END
$$$$
