
     RDKit          3D

 19 20  0  0  0  0  0  0  0  0999 V2000
   -7.3423    7.2908  -17.2744 N   0  0  0  0  0  0  0  0  0  0  0  0
   -8.4127    8.0741  -17.8918 C   0  0  0  0  0  0  0  0  0  0  0  0
   -7.9820    9.4921  -18.2578 C   0  0  0  0  0  0  0  0  0  0  0  0
   -7.0354    9.5448  -19.4421 C   0  0  0  0  0  0  0  0  0  0  0  0
   -6.8933    8.6388  -20.2567 O   0  0  0  0  0  0  0  0  0  0  0  0
   -6.3276   10.8247  -19.6696 C   0  0  0  0  0  0  0  0  0  0  0  0
   -6.7331   11.5592  -20.7948 C   0  0  0  0  0  0  0  0  0  0  0  0
   -6.2069   12.8265  -21.0187 C   0  0  0  0  0  0  0  0  0  0  0  0
   -5.2900   13.3491  -20.1137 C   0  0  0  0  0  0  0  0  0  0  0  0
   -4.6524   14.9280  -20.3677 Cl  0  0  0  0  0  0  0  0  0  0  0  0
   -4.8708   12.6049  -19.0029 C   0  0  0  0  0  0  0  0  0  0  0  0
   -5.3543   11.3078  -18.7631 C   0  0  0  0  0  0  0  0  0  0  0  0
   -4.8897   10.5265  -17.6976 N   0  0  0  0  0  0  0  0  0  0  0  0
   -4.4778   11.1493  -16.4325 C   0  0  0  0  0  0  0  0  0  0  0  0
   -2.9651   11.3458  -16.3558 C   0  0  0  0  0  0  0  0  0  0  0  0
   -2.2239   10.0387  -16.5798 C   0  0  0  0  0  0  0  0  0  0  0  0
   -2.6632    9.4264  -17.8869 C   0  0  0  0  0  0  0  0  0  0  0  0
   -1.8433    8.9667  -18.6821 O   0  0  0  0  0  0  0  0  0  0  0  0
   -4.1657    9.2893  -18.0886 C   0  0  0  0  0  0  0  0  0  0  0  0
  1  2  1  0
  2  3  1  0
  3  4  1  0
  4  5  2  0
  4  6  1  0
  6  7  2  0
  7  8  1  0
  8  9  2  0
  9 10  1  0
  9 11  1  0
 11 12  2  0
 12 13  1  0
 13 14  1  0
 14 15  1  0
 15 16  1  0
 16 17  1  0
 17 18  2  0
 17 19  1  0
 12  6  1  0
 19 13  1  0
M  END
$$$$
