
     RDKit          3D

 20 21  0  0  0  0  0  0  0  0999 V2000
  -28.3570   75.7386   13.6640 C   0  0  0  0  0  0  0  0  0  0  0  0
  -28.2122   77.0618   14.2682 N   0  0  0  0  0  0  0  0  0  0  0  0
  -28.6000   78.1252   13.3279 C   0  0  0  0  0  0  0  0  0  0  0  0
  -30.1050   78.1328   13.0838 C   0  0  0  0  0  0  0  0  0  0  0  0
  -30.5562   77.8582   11.9692 O   0  0  0  0  0  0  0  0  0  0  0  0
  -30.9782   78.4494   14.2884 C   0  0  0  0  0  0  0  0  0  0  0  0
  -32.3133   79.0670   13.9409 C   0  0  0  0  0  0  0  0  0  0  0  0
  -32.3186   80.4478   13.6515 C   0  0  0  0  0  0  0  0  0  0  0  0
  -33.5001   81.1184   13.3378 C   0  0  0  0  0  0  0  0  0  0  0  0
  -34.7068   80.4310   13.2997 C   0  0  0  0  0  0  0  0  0  0  0  0
  -35.7957   81.1962   12.9839 O   0  0  0  0  0  0  0  0  0  0  0  0
  -37.0412   80.5183   12.8763 C   0  0  0  0  0  0  0  0  0  0  0  0
  -34.7116   79.0643   13.5777 C   0  0  0  0  0  0  0  0  0  0  0  0
  -33.5292   78.3575   13.8924 C   0  0  0  0  0  0  0  0  0  0  0  0
  -33.6961   76.9894   14.1403 N   0  0  0  0  0  0  0  0  0  0  0  0
  -32.9926   76.0715   13.2402 C   0  0  0  0  0  0  0  0  0  0  0  0
  -33.6437   74.6907   13.3385 C   0  0  0  0  0  0  0  0  0  0  0  0
  -33.6814   74.2027   14.7870 C   0  0  0  0  0  0  0  0  0  0  0  0
  -34.3604   75.2304   15.6926 C   0  0  0  0  0  0  0  0  0  0  0  0
  -33.7152   76.6107   15.5553 C   0  0  0  0  0  0  0  0  0  0  0  0
  1  2  1  0
  2  3  1  0
  3  4  1  0
  4  5  2  0
  4  6  1  0
  6  7  1  0
  7  8  2  0
  8  9  1  0
  9 10  2  0
 10 11  1  0
 11 12  1  0
 10 13  1  0
 13 14  2  0
 14 15  1  0
 15 16  1  0
 16 17  1  0
 17 18  1  0
 18 19  1  0
 19 20  1  0
 14  7  1  0
 20 15  1  0
M  END
$$$$
